@<TRIPOS>MOLECULE
./ligand/1s38_lig.pdb
 23 24 0 0 0
SMALL
GASTEIGER

@<TRIPOS>ATOM
      1  C1        17.1110   16.7670   18.7770 C.ar  372  INH372     -0.0571
      2  C2        16.0680   16.4780   19.7180 C.ar  372  INH372     -0.0288
      3  C3        14.6910   15.9090   19.2960 C.3   372  INH372     -0.0379
      4  C4        16.3090   16.7310   21.1290 C.ar  372  INH372      0.0449
      5  N1        15.3370   16.4740   22.0920 N.pl3 372  INH372     -0.3064
      6  C5        15.5140   16.6900   23.3800 C.3   372  INH372      0.2065
      7  N2        14.5310   16.4170   24.2140 N.3   372  INH372     -0.2905
      8  N3        16.6740   17.1860   23.8600 N.am  372  INH372     -0.2741
      9  C6        17.7200   17.4890   23.0730 C.2   372  INH372      0.2485
     10  O1        18.7830   17.9410   23.4930 O.2   372  INH372     -0.2700
     11  C7        17.5900   17.2630   21.5480 C.ar  372  INH372      0.0579
     12  C8        18.6150   17.5430   20.5890 C.ar  372  INH372     -0.0478
     13  C9        18.3790   17.2950   19.1960 C.ar  372  INH372     -0.0607
     14  H1        16.9380   16.5820   17.7230 H     372  INH372      0.0621
     15  H2        14.6680   15.7750   18.2040 H     372  INH372      0.0278
     16  H3        13.8970   16.6090   19.5960 H     372  INH372      0.0278
     17  H4        14.5290   14.9390   19.7880 H     372  INH372      0.0278
     18  H5        13.6420   16.0380   23.8560 H     372  INH372      0.1219
     19  H6        14.6510   16.5820   25.2230 H     372  INH372      0.1219
     20  H7        16.7590   17.3350   24.8450 H     372  INH372      0.1525
     21  H8        19.5690   17.9420   20.9150 H     372  INH372      0.0626
     22  H9        19.1520   17.5040   18.4650 H     372  INH372      0.0618
     23  H10       14.4310   16.0950   21.7810 H     372  INH372      0.1495
@<TRIPOS>BOND
     1     1    14    1
     2     1    13   ar
     3     1     2   ar
     4     2     4   ar
     5     2     3    1
     6     3    17    1
     7     3    16    1
     8     3    15    1
     9     4    11   ar
    10     4     5    1
    11     5    23    1
    12     5     6    1
    13     6     8    1
    14     6     7    1
    15     7    19    1
    16     7    18    1
    17     8    20    1
    18     8     9   am
    19     9    11    1
    20     9    10    2
    21    11    12   ar
    22    12    21    1
    23    12    13   ar
    24    13    22    1
