@<TRIPOS>MOLECULE
/tmp/ewbell/vina_1s38_1s38_lig/vina/vina1.pdbqt
 17 18 0 0 0
SMALL
GASTEIGER

@<TRIPOS>ATOM
      1  C1        17.1900   16.8400   18.8670 C.ar  372  INH372      0.0090
      2  C2        16.0980   16.5880   19.7620 C.ar  372  INH372     -0.0350
      3  C3        14.7140   16.0900   19.2770 C.3   372  INH372      0.0500
      4  C4        16.2930   16.8120   21.1850 C.ar  372  INH372      0.0520
      5  N1        15.2720   16.5890   22.1050 N.pl3 372  INH372     -0.3440
      6  C5        15.4070   16.7800   23.4020 C.3   372  INH372      0.7620
      7  N2        14.3800   16.5430   24.1920 N.3   372  INH372     -0.3870
      8  N3        16.5690   17.2150   23.9340 N.am  372  INH372     -0.0160
      9  C6        17.6590   17.4790   23.1940 C.2   372  INH372      0.3390
     10  O1        18.7240   17.8750   23.6620 O.2   372  INH372     -0.2610
     11  C7        17.5800   17.2780   21.6610 C.ar  372  INH372      0.0650
     12  C8        18.6540   17.5220   20.7480 C.ar  372  INH372      0.0190
     13  C9        18.4630   17.3020   19.3430 C.ar  372  INH372      0.0020
     14  H5        13.4890   16.2110   23.7940 H     372  INH372      0.1530
     15  H6        14.4670   16.6900   25.2070 H     372  INH372      0.1530
     16  H7        16.6210   17.3480   24.9240 H     372  INH372      0.2740
     17  H10       14.3630   16.2570   21.7530 H     372  INH372      0.1630
@<TRIPOS>BOND
     1     1    13   ar
     2     1     2   ar
     3     3     2    1
     4    13    12   ar
     5     2     4   ar
     6    12    11   ar
     7     4    11   ar
     8     4     5    1
     9    11     9    1
    10    17     5    1
    11     5     6    1
    12     9    10    2
    13     9     8   am
    14     6     8    1
    15     6     7    1
    16    14     7    1
    17     8    16    1
    18     7    15    1
