@<TRIPOS>MOLECULE
/tmp/ewbell/vina_1s38_1s38_lig/vina/vina5.pdbqt
 17 18 0 0 0
SMALL
GASTEIGER

@<TRIPOS>ATOM
      1  C1        13.3910   17.2090   14.7700 C.ar  372  INH372      0.0090
      2  C2        13.0320   16.1650   15.6850 C.ar  372  INH372     -0.0350
      3  C3        11.7620   15.2960   15.5090 C.3   372  INH372      0.0500
      4  C4        13.8920   15.9100   16.8290 C.ar  372  INH372      0.0520
      5  N1        13.5970   14.9120   17.7540 N.pl3 372  INH372     -0.3440
      6  C5        14.3480   14.6490   18.8040 C.3   372  INH372      0.7620
      7  N2        13.9830   13.6850   19.6250 N.3   372  INH372     -0.3870
      8  N3        15.4770   15.3450   19.0570 N.am  372  INH372     -0.0160
      9  C6        15.9130   16.3410   18.2680 C.2   372  INH372      0.3390
     10  O1        16.9380   16.9850   18.4830 O.2   372  INH372     -0.2610
     11  C7        15.0850   16.7100   17.0140 C.ar  372  INH372      0.0650
     12  C8        15.4220   17.7470   16.0870 C.ar  372  INH372      0.0190
     13  C9        14.5750   18.0010   14.9580 C.ar  372  INH372      0.0020
     14  H5        13.1230   13.1490   19.4400 H     372  INH372      0.1530
     15  H6        14.5570   13.4680   20.4520 H     372  INH372      0.1530
     16  H7        16.0120   15.1100   19.8680 H     372  INH372      0.2740
     17  H10       12.7460   14.3500   17.6100 H     372  INH372      0.1630
@<TRIPOS>BOND
     1     1    13   ar
     2     1     2   ar
     3    13    12   ar
     4     3     2    1
     5     2     4   ar
     6    12    11   ar
     7     4    11   ar
     8     4     5    1
     9    11     9    1
    10    17     5    1
    11     5     6    1
    12     9    10    2
    13     9     8   am
    14     6     8    1
    15     6     7    1
    16     8    16    1
    17    14     7    1
    18     7    15    1
