@<TRIPOS>MOLECULE
/tmp/ewbell/vina_1s38_1s38_lig/vina/vina2.pdbqt
 17 18 0 0 0
SMALL
GASTEIGER

@<TRIPOS>ATOM
      1  C1        17.5230   17.4770   23.2140 C.ar  372  INH372      0.0090
      2  C2        16.3030   16.9670   22.6580 C.ar  372  INH372     -0.0350
      3  C3        15.0760   16.5960   23.5270 C.3   372  INH372      0.0500
      4  C4        16.2120   16.7880   21.2180 C.ar  372  INH372      0.0520
      5  N1        15.0560   16.2950   20.6170 N.pl3 372  INH372     -0.3440
      6  C5        14.9320   16.1160   19.3180 C.3   372  INH372      0.7620
      7  N2        13.7980   15.6420   18.8440 N.3   372  INH372     -0.3870
      8  N3        15.9390   16.4050   18.4660 N.am  372  INH372     -0.0160
      9  C6        17.1230   16.8910   18.8730 C.2   372  INH372      0.3390
     10  O1        18.0500   17.1590   18.1110 O.2   372  INH372     -0.2610
     11  C7        17.3470   17.1290   20.3850 C.ar  372  INH372      0.0650
     12  C8        18.5540   17.6360   20.9640 C.ar  372  INH372      0.0190
     13  C9        18.6470   17.8130   22.3840 C.ar  372  INH372      0.0020
     14  H5        13.0240   15.4190   19.4880 H     372  INH372      0.1530
     15  H6        13.6840   15.4930   17.8320 H     372  INH372      0.1530
     16  H7        15.7970   16.2490   17.4880 H     372  INH372      0.2740
     17  H10       14.2560   16.0580   21.2210 H     372  INH372      0.1630
@<TRIPOS>BOND
     1    16     8    1
     2    15     7    1
     3    10     9    2
     4     8     9   am
     5     8     6    1
     6     7     6    1
     7     7    14    1
     8     9    11    1
     9     6     5    1
    10    11    12   ar
    11    11     4   ar
    12     5     4    1
    13     5    17    1
    14    12    13   ar
    15     4     2   ar
    16    13     1   ar
    17     2     1   ar
    18     2     3    1
