@<TRIPOS>MOLECULE
/tmp/ewbell/vina_1s38_1s38_lig/vina/vina3.pdbqt
 17 18 0 0 0
SMALL
GASTEIGER

@<TRIPOS>ATOM
      1  C1        17.4780   17.4190   19.8240 C.ar  372  INH372      0.0090
      2  C2        16.2260   16.7860   20.1210 C.ar  372  INH372     -0.0350
      3  C3        15.7510   16.5020   21.5680 C.3   372  INH372      0.0500
      4  C4        15.3630   16.3900   19.0200 C.ar  372  INH372      0.0520
      5  N1        14.1370   15.7700   19.2420 N.pl3 372  INH372     -0.3440
      6  C5        13.3260   15.3940   18.2730 C.3   372  INH372      0.7620
      7  N2        12.1860   14.8110   18.5840 N.3   372  INH372     -0.3870
      8  N3        13.6390   15.5900   16.9740 N.am  372  INH372     -0.0160
      9  C6        14.7810   16.1760   16.5790 C.2   372  INH372      0.3390
     10  O1        15.0820   16.3630   15.4020 O.2   372  INH372     -0.2610
     11  C7        15.7860   16.6460   17.6580 C.ar  372  INH372      0.0650
     12  C8        17.0400   17.2790   17.3880 C.ar  372  INH372      0.0190
     13  C9        17.8930   17.6700   18.4730 C.ar  372  INH372      0.0020
     14  H5        11.9400   14.6570   19.5730 H     372  INH372      0.1530
     15  H6        11.5420   14.5090   17.8400 H     372  INH372      0.1530
     16  H7        12.9920   15.2850   16.2760 H     372  INH372      0.2740
     17  H10       13.8480   15.5940   20.2150 H     372  INH372      0.1630
@<TRIPOS>BOND
     1    10     9    2
     2    16     8    1
     3     9     8   am
     4     9    11    1
     5     8     6    1
     6    12    11   ar
     7    12    13   ar
     8    11     4   ar
     9    15     7    1
    10     6     7    1
    11     6     5    1
    12    13     1   ar
    13     7    14    1
    14     4     5    1
    15     4     2   ar
    16     5    17    1
    17     1     2   ar
    18     2     3    1
