@<TRIPOS>MOLECULE
/tmp/ewbell/vina_1s38_1s38_lig/vina/vina4.pdbqt
 17 18 0 0 0
SMALL
GASTEIGER

@<TRIPOS>ATOM
      1  C1        12.0130   16.4040   15.7110 C.ar  372  INH372      0.0090
      2  C2        13.2730   16.9640   16.1050 C.ar  372  INH372     -0.0350
      3  C3        13.8800   18.2200   15.4320 C.3   372  INH372      0.0500
      4  C4        14.0160   16.3270   17.1790 C.ar  372  INH372      0.0520
      5  N1        15.2460   16.8200   17.6070 N.pl3 372  INH372     -0.3440
      6  C5        15.9520   16.2720   18.5750 C.3   372  INH372      0.7620
      7  N2        17.1080   16.8120   18.9060 N.3   372  INH372     -0.3870
      8  N3        15.5210   15.1730   19.2300 N.am  372  INH372     -0.0160
      9  C6        14.3550   14.5670   18.9490 C.2   372  INH372      0.3390
     10  O1        13.9470   13.5660   19.5340 O.2   372  INH372     -0.2610
     11  C7        13.4680   15.1510   17.8240 C.ar  372  INH372      0.0650
     12  C8        12.2080   14.6110   17.4120 C.ar  372  INH372      0.0190
     13  C9        11.4730   15.2380   16.3510 C.ar  372  INH372      0.0020
     14  H5        17.4450   17.6510   18.4120 H     372  INH372      0.1530
     15  H6        17.6740   16.3950   19.6590 H     372  INH372      0.1530
     16  H7        16.0940   14.7930   19.9550 H     372  INH372      0.2740
     17  H10       15.6240   17.6570   17.1410 H     372  INH372      0.1630
@<TRIPOS>BOND
     1     3     2    1
     2     1     2   ar
     3     1    13   ar
     4     2     4   ar
     5    13    12   ar
     6    17     5    1
     7     4     5    1
     8     4    11   ar
     9    12    11   ar
    10     5     6    1
    11    11     9    1
    12    14     7    1
    13     6     7    1
    14     6     8    1
    15     7    15    1
    16     9     8   am
    17     9    10    2
    18     8    16    1
