@<TRIPOS>MOLECULE
./ligand/2arb_lig.pdb
 51 52 0 0 0
SMALL
GASTEIGER

@<TRIPOS>ATOM
      1  C1         2.8110   40.8060   23.0470 C.3   487  INH487      0.1809
      2  C2         3.5550   40.5300   21.7310 C.3   487  INH487      0.1023
      3  C3         2.5820   40.5940   20.5480 C.3   487  INH487      0.1065
      4  C4         1.3110   39.7750   20.8230 C.3   487  INH487      0.1112
      5  C5         0.6950   40.1440   22.1650 C.3   487  INH487      0.1130
      6  C6        -0.5030   39.2720   22.5010 C.3   487  INH487      0.0730
      7  C7         5.8090   41.2550   21.1100 C.2   487  INH487      0.2104
      8  C8         6.8020   42.4020   21.0480 C.3   487  INH487      0.0122
      9  N1         4.5980   41.5420   21.5890 N.am  487  INH487     -0.3053
     10  O1         3.2300   40.0770   19.3950 O.3   487  INH487     -0.3871
     11  O2         0.3560   40.0070   19.8010 O.3   487  INH487     -0.3865
     12  O3         1.6640   39.9650   23.2100 O.3   487  INH487     -0.3412
     13  O4        -1.2360   39.7910   23.6050 O.3   487  INH487     -0.3924
     14  O5         6.1410   40.1400   20.7020 O.2   487  INH487     -0.2761
     15  C9         4.5100   42.1240   25.7640 C.3   487  INH487      0.1858
     16  C10        3.3190   41.2800   25.3080 C.3   487  INH487      0.1404
     17  C11        2.8960   40.3010   26.4200 C.3   487  INH487      0.1144
     18  C12        4.0750   39.4600   26.8830 C.3   487  INH487      0.1119
     19  C13        5.2050   40.4060   27.3280 C.3   487  INH487      0.1130
     20  C14        6.4580   39.6710   27.7710 C.3   487  INH487      0.0730
     21  O6         4.1090   42.9560   26.8040 O.3   487  INH487     -0.3649
     22  O7         3.6570   40.5680   24.1060 O.3   487  INH487     -0.3384
     23  O8         1.8420   39.4720   25.9750 O.3   487  INH487     -0.3864
     24  O9         3.6500   38.6520   27.9730 O.3   487  INH487     -0.3865
     25  O10        5.5910   41.2840   26.2260 O.3   487  INH487     -0.3407
     26  O11        7.0700   39.0080   26.6690 O.3   487  INH487     -0.3924
     27  H1         2.4900   41.8580   23.0580 H     487  INH487      0.0930
     28  H2         4.0130   39.5300   21.7670 H     487  INH487      0.0575
     29  H3         2.3000   41.6430   20.3710 H     487  INH487      0.0640
     30  H4         1.5760   38.7070   20.8340 H     487  INH487      0.0646
     31  H5         0.3780   41.1970   22.1310 H     487  INH487      0.0647
     32  H6        -0.1490   38.2610   22.7510 H     487  INH487      0.0584
     33  H7        -1.1660   39.2220   21.6240 H     487  INH487      0.0584
     34  H8         7.7560   42.0390   20.6380 H     487  INH487      0.0322
     35  H9         6.9660   42.8000   22.0600 H     487  INH487      0.0322
     36  H10        6.4040   43.1970   20.4010 H     487  INH487      0.0322
     37  H11        4.3970   42.4830   21.8610 H     487  INH487      0.1492
     38  H12        2.6350   40.1120   18.6540 H     487  INH487      0.2100
     39  H13       -0.4260   39.4980   19.9770 H     487  INH487      0.2100
     40  H14       -1.9760   39.2240   23.7880 H     487  INH487      0.2095
     41  H15        4.8630   42.7350   24.9200 H     487  INH487      0.0936
     42  H16        2.4740   41.9510   25.0930 H     487  INH487      0.0675
     43  H17        2.5350   40.8890   27.2770 H     487  INH487      0.0648
     44  H18        4.4290   38.8200   26.0620 H     487  INH487      0.0647
     45  H19        4.8340   41.0130   28.1670 H     487  INH487      0.0647
     46  H20        6.1890   38.9270   28.5350 H     487  INH487      0.0584
     47  H21        7.1690   40.3940   28.1970 H     487  INH487      0.0584
     48  H22        4.8460   43.4820   27.0910 H     487  INH487      0.2126
     49  H23        1.1140   40.0110   25.6900 H     487  INH487      0.2100
     50  H24        4.3760   38.1190   28.2750 H     487  INH487      0.2100
     51  H25        6.4590   38.3820   26.2970 H     487  INH487      0.2095
@<TRIPOS>BOND
     1     1    22    1
     2     1    27    1
     3     1    12    1
     4     1     2    1
     5     2    28    1
     6     2     9    1
     7     2     3    1
     8     3    29    1
     9     3    10    1
    10     3     4    1
    11     4    30    1
    12     4    11    1
    13     4     5    1
    14     5    31    1
    15     5    12    1
    16     5     6    1
    17     6    33    1
    18     6    32    1
    19     6    13    1
    20     7     9   am
    21     7    14    2
    22     7     8    1
    23     8    36    1
    24     8    35    1
    25     8    34    1
    26     9    37    1
    27    10    38    1
    28    11    39    1
    29    13    40    1
    30    15    41    1
    31    15    25    1
    32    15    21    1
    33    15    16    1
    34    16    42    1
    35    16    22    1
    36    16    17    1
    37    17    43    1
    38    17    23    1
    39    17    18    1
    40    18    44    1
    41    18    24    1
    42    18    19    1
    43    19    45    1
    44    19    25    1
    45    19    20    1
    46    20    47    1
    47    20    46    1
    48    20    26    1
    49    21    48    1
    50    23    49    1
    51    24    50    1
    52    26    51    1
