@<TRIPOS>MOLECULE
/tmp/ewbell/vina_2arb_2arb_lig/vina/vina5.pdbqt
 34 35 0 0 0
SMALL
GASTEIGER

@<TRIPOS>ATOM
      1  C1         2.7960   40.3540   21.9180 C.3   487  INH487      0.2860
      2  C2         3.9520   41.0820   22.6230 C.3   487  INH487      0.1700
      3  C3         4.9490   41.6190   21.5900 C.3   487  INH487      0.1770
      4  C4         5.3210   40.5430   20.5580 C.3   487  INH487      0.1800
      5  C5         4.0790   39.9000   19.9580 C.3   487  INH487      0.1790
      6  O3         3.2600   39.3550   21.0040 O.3   487  INH487     -0.3490
      7  O7         2.0120   39.7280   22.8590 O.3   487  INH487     -0.3460
      8  C10        0.6050   39.7390   22.5630 C.3   487  INH487      0.2110
      9  C9         0.1830   41.1350   22.1020 C.3   487  INH487      0.2890
     10  O10        0.2510   42.0810   23.1910 O.3   487  INH487     -0.3490
     11  C13       -0.5820   41.7050   24.3320 C.3   487  INH487      0.1790
     12  C12       -0.1240   40.3500   24.9000 C.3   487  INH487      0.1800
     13  C11       -0.2140   39.3090   23.7960 C.3   487  INH487      0.1830
     14  O6        -1.1240   41.0840   21.6310 O.3   487  INH487     -0.3690
     15  H22       -1.4040   41.9550   21.3750 H     487  INH487      0.2120
     16  C14       -0.4900   42.8370   25.3410 C.3   487  INH487      0.1980
     17  O11       -1.5740   42.7810   26.2610 O.3   487  INH487     -0.3980
     18  H25       -1.2380   42.8000   27.1490 H     487  INH487      0.2090
     19  O9        -0.9770   39.9490   25.9660 O.3   487  INH487     -0.3900
     20  H24       -0.9140   40.5780   26.6750 H     487  INH487      0.2100
     21  O8         0.2240   38.0500   24.2660 O.3   487  INH487     -0.3900
     22  H23        0.0870   37.9980   25.2040 H     487  INH487      0.2100
     23  N1         3.3790   42.1790   23.3980 N.am  487  INH487     -0.3490
     24  C7         3.5780   42.3040   24.7100 C.2   487  INH487      0.2140
     25  O5         3.1000   43.2110   25.3960 O.2   487  INH487     -0.2740
     26  C8         4.4230   41.2310   25.3730 C.3   487  INH487      0.1170
     27  H11        2.8170   42.8600   22.9280 H     487  INH487      0.1630
     28  C6         4.4260   38.7630   19.0120 C.3   487  INH487      0.1980
     29  O4         5.7640   38.3160   19.1990 O.3   487  INH487     -0.3980
     30  H14        6.3280   39.0630   19.3600 H     487  INH487      0.2090
     31  O1         6.1240   42.0430   22.2660 O.3   487  INH487     -0.3910
     32  H12        6.7170   42.4520   21.6460 H     487  INH487      0.2100
     33  O2         6.0880   41.1190   19.5140 O.3   487  INH487     -0.3900
     34  H13        6.4520   41.9460   19.8080 H     487  INH487      0.2100
@<TRIPOS>BOND
     1    28    29    1
     2    28     5    1
     3    29    30    1
     4    33    34    1
     5    33     4    1
     6     5     4    1
     7     5     6    1
     8     4     3    1
     9     6     1    1
    10    15    14    1
    11     3    31    1
    12     3     2    1
    13    14     9    1
    14    32    31    1
    15     1     2    1
    16     1     7    1
    17     9     8    1
    18     9    10    1
    19     8     7    1
    20     8    13    1
    21     2    23    1
    22    27    23    1
    23    10    11    1
    24    23    24   am
    25    13    21    1
    26    13    12    1
    27    21    22    1
    28    11    12    1
    29    11    16    1
    30    24    26    1
    31    24    25    2
    32    12    19    1
    33    16    17    1
    34    19    20    1
    35    17    18    1
