@<TRIPOS>MOLECULE
/tmp/ewbell/vina_2arb_2arb_lig/vina/vina1.pdbqt
 34 35 0 0 0
SMALL
GASTEIGER

@<TRIPOS>ATOM
      1  C1         2.9110   40.8590   23.2290 C.3   487  INH487      0.2860
      2  C2         3.5730   40.7130   21.8490 C.3   487  INH487      0.1700
      3  C3         2.5070   40.7160   20.7470 C.3   487  INH487      0.1770
      4  C4         1.3540   39.7570   21.0800 C.3   487  INH487      0.1800
      5  C5         0.8120   40.0080   22.4790 C.3   487  INH487      0.1790
      6  O3         1.8740   39.8950   23.4390 O.3   487  INH487     -0.3490
      7  O7         3.8590   40.6740   24.2090 O.3   487  INH487     -0.3460
      8  C10        3.6080   41.4030   25.4230 C.3   487  INH487      0.2110
      9  C9         4.8990   42.0680   25.9050 C.3   487  INH487      0.2890
     10  O10        5.8500   41.0790   26.3580 O.3   487  INH487     -0.3490
     11  C13        5.3360   40.2410   27.4400 C.3   487  INH487      0.1790
     12  C12        4.0920   39.4670   26.9670 C.3   487  INH487      0.1800
     13  C11        3.0450   40.4700   26.5120 C.3   487  INH487      0.1830
     14  O6         4.6040   42.9270   26.9580 O.3   487  INH487     -0.3690
     15  H22        3.8100   42.6360   27.3920 H     487  INH487      0.2120
     16  C14        6.4730   39.3340   27.8770 C.3   487  INH487      0.1980
     17  O11        7.2220   38.8870   26.7530 O.3   487  INH487     -0.3980
     18  H25        7.8070   38.1870   27.0190 H     487  INH487      0.2090
     19  O9         3.5490   38.7050   28.0380 O.3   487  INH487     -0.3900
     20  H24        4.1130   38.7810   28.7980 H     487  INH487      0.2100
     21  O8         1.8910   39.8020   26.0420 O.3   487  INH487     -0.3900
     22  H23        1.7240   40.0540   25.1420 H     487  INH487      0.2100
     23  N1         4.4910   41.8350   21.6750 N.am  487  INH487     -0.3490
     24  C7         5.7050   41.6860   21.1450 C.2   487  INH487      0.2140
     25  O5         6.5080   42.6090   20.9940 O.2   487  INH487     -0.2740
     26  C8         6.1000   40.2760   20.7420 C.3   487  INH487      0.1170
     27  H11        4.1990   42.7470   21.9650 H     487  INH487      0.1630
     28  C6        -0.2590   39.0020   22.8650 C.3   487  INH487      0.1980
     29  O4         0.1590   38.1800   23.9480 O.3   487  INH487     -0.3980
     30  H14        0.8870   38.5930   24.3970 H     487  INH487      0.2090
     31  O1         3.1120   40.3140   19.5260 O.3   487  INH487     -0.3910
     32  H12        4.0410   40.5150   19.5510 H     487  INH487      0.2100
     33  O2         0.3020   39.9230   20.1440 O.3   487  INH487     -0.3900
     34  H13       -0.4810   40.2120   20.5960 H     487  INH487      0.2100
@<TRIPOS>BOND
     1    31    32    1
     2    31     3    1
     3    33    34    1
     4    33     4    1
     5    26    24    1
     6     3     4    1
     7     3     2    1
     8    25    24    2
     9     4     5    1
    10    24    23   am
    11    23     2    1
    12    23    27    1
    13     2     1    1
    14     5    28    1
    15     5     6    1
    16    28    29    1
    17     1     6    1
    18     1     7    1
    19    29    30    1
    20     7     8    1
    21    22    21    1
    22     8     9    1
    23     8    13    1
    24     9    10    1
    25     9    14    1
    26    21    13    1
    27    10    11    1
    28    13    12    1
    29    17    18    1
    30    17    16    1
    31    14    15    1
    32    12    11    1
    33    12    19    1
    34    11    16    1
    35    19    20    1
