@<TRIPOS>MOLECULE
/tmp/ewbell/vina_2arb_2arb_lig/vina/vina4.pdbqt
 34 35 0 0 0
SMALL
GASTEIGER

@<TRIPOS>ATOM
      1  C1         3.7990   40.9180   22.6680 C.3   487  INH487      0.2860
      2  C2         2.3400   41.3740   22.5160 C.3   487  INH487      0.1700
      3  C3         2.1770   42.2160   21.2450 C.3   487  INH487      0.1770
      4  C4         3.2660   43.2950   21.1450 C.3   487  INH487      0.1800
      5  C5         4.6540   42.7000   21.3320 C.3   487  INH487      0.1790
      6  O3         4.7220   42.0100   22.5900 O.3   487  INH487     -0.3490
      7  O7         3.9630   40.3210   23.8980 O.3   487  INH487     -0.3460
      8  C10        3.5680   41.1390   25.0120 C.3   487  INH487      0.2110
      9  C9         4.7660   41.9460   25.5140 C.3   487  INH487      0.2890
     10  O10        5.7490   41.0850   26.1270 O.3   487  INH487     -0.3490
     11  C13        5.2170   40.3140   27.2490 C.3   487  INH487      0.1790
     12  C12        4.0730   39.4010   26.7710 C.3   487  INH487      0.1800
     13  C11        2.9930   40.2700   26.1480 C.3   487  INH487      0.1830
     14  O6         4.3310   42.8740   26.4530 O.3   487  INH487     -0.3690
     15  H22        4.2320   42.4490   27.2970 H     487  INH487      0.2120
     16  C14        6.3810   39.5450   27.8520 C.3   487  INH487      0.1980
     17  O11        7.1770   38.9540   26.8310 O.3   487  INH487     -0.3980
     18  H25        8.0920   38.9880   27.0830 H     487  INH487      0.2090
     19  O9         3.5070   38.7020   27.8730 O.3   487  INH487     -0.3900
     20  H24        3.0160   39.3080   28.4140 H     487  INH487      0.2100
     21  O8         1.9300   39.4700   25.6690 O.3   487  INH487     -0.3900
     22  H23        1.2640   39.3930   26.3410 H     487  INH487      0.2100
     23  N1         1.5040   40.1780   22.4460 N.am  487  INH487     -0.3490
     24  C7         0.3320   40.0910   23.0740 C.2   487  INH487      0.2140
     25  O5        -0.3920   39.0930   23.0460 O.2   487  INH487     -0.2740
     26  C8        -0.0920   41.3000   23.8890 C.3   487  INH487      0.1170
     27  H11        1.8240   39.3970   21.9090 H     487  INH487      0.1630
     28  C6         5.7360   43.7660   21.3390 C.3   487  INH487      0.1980
     29  O4         5.2710   44.9800   21.9180 O.3   487  INH487     -0.3980
     30  H14        4.9900   44.8180   22.8110 H     487  INH487      0.2090
     31  O1         0.9020   42.8400   21.2710 O.3   487  INH487     -0.3910
     32  H12        0.7340   43.1830   22.1420 H     487  INH487      0.2100
     33  O2         3.2050   43.9270   19.8770 O.3   487  INH487     -0.3900
     34  H13        4.0700   44.2360   19.6350 H     487  INH487      0.2100
@<TRIPOS>BOND
     1    34    33    1
     2    33     4    1
     3     4     3    1
     4     4     5    1
     5     3    31    1
     6     3     2    1
     7    31    32    1
     8     5    28    1
     9     5     6    1
    10    28    29    1
    11    27    23    1
    12    29    30    1
    13    23     2    1
    14    23    24   am
    15     2     1    1
    16     6     1    1
    17     1     7    1
    18    25    24    2
    19    24    26    1
    20     7     8    1
    21     8     9    1
    22     8    13    1
    23     9    10    1
    24     9    14    1
    25    21    13    1
    26    21    22    1
    27    10    11    1
    28    13    12    1
    29    14    15    1
    30    12    11    1
    31    12    19    1
    32    17    18    1
    33    17    16    1
    34    11    16    1
    35    19    20    1
