@<TRIPOS>MOLECULE
/tmp/ewbell/vina_2arb_2arb_lig/vina/vina2.pdbqt
 34 35 0 0 0
SMALL
GASTEIGER

@<TRIPOS>ATOM
      1  C1        -7.0690   31.1450   14.5970 C.3   487  INH487      0.2860
      2  C2        -6.2790   30.2660   13.6160 C.3   487  INH487      0.1700
      3  C3        -5.1660   31.0820   12.9490 C.3   487  INH487      0.1770
      4  C4        -5.6960   32.4250   12.4200 C.3   487  INH487      0.1800
      5  C5        -6.4700   33.1750   13.4950 C.3   487  INH487      0.1790
      6  O3        -7.5390   32.3530   13.9880 O.3   487  INH487     -0.3490
      7  O7        -8.1680   30.4500   15.0470 O.3   487  INH487     -0.3460
      8  C10       -8.5120   30.7070   16.4190 C.3   487  INH487      0.2110
      9  C9        -7.2390   30.8550   17.2550 C.3   487  INH487      0.2890
     10  O10       -6.5460   29.5930   17.3670 O.3   487  INH487     -0.3490
     11  C13       -7.3640   28.5390   17.9640 C.3   487  INH487      0.1790
     12  C12       -8.6100   28.2790   17.0980 C.3   487  INH487      0.1800
     13  C11       -9.3940   29.5750   16.9800 C.3   487  INH487      0.1830
     14  O6        -7.5780   31.2990   18.5280 O.3   487  INH487     -0.3690
     15  H22       -6.8060   31.2900   19.0830 H     487  INH487      0.2120
     16  C14       -6.4740   27.3170   18.1130 C.3   487  INH487      0.1980
     17  O11       -5.1370   27.6180   17.7310 O.3   487  INH487     -0.3980
     18  H25       -5.0450   27.5170   16.7910 H     487  INH487      0.2090
     19  O9        -9.4420   27.3030   17.7130 O.3   487  INH487     -0.3900
     20  H24       -9.0260   26.9850   18.5050 H     487  INH487      0.2100
     21  O8       -10.5360   29.3890   16.1680 O.3   487  INH487     -0.3900
     22  H23      -11.0850   28.7120   16.5440 H     487  INH487      0.2100
     23  N1        -5.7110   29.1540   14.3730 N.am  487  INH487     -0.3490
     24  C7        -6.0470   27.8850   14.1360 C.2   487  INH487      0.2140
     25  O5        -5.5960   26.9250   14.7640 O.2   487  INH487     -0.2740
     26  C8        -7.0720   27.6490   13.0410 C.3   487  INH487      0.1170
     27  H11       -5.0480   29.3510   15.0960 H     487  INH487      0.1630
     28  C6        -7.0890   34.4560   12.9610 C.3   487  INH487      0.1980
     29  O4        -7.9770   35.0420   13.9060 O.3   487  INH487     -0.3980
     30  H14       -8.4920   35.7170   13.4800 H     487  INH487      0.2090
     31  O1        -4.6340   30.3320   11.8670 O.3   487  INH487     -0.3910
     32  H12       -4.3220   30.9250   11.1920 H     487  INH487      0.2100
     33  O2        -4.6160   33.2330   11.9840 O.3   487  INH487     -0.3900
     34  H13       -4.3060   32.9200   11.1430 H     487  INH487      0.2100
@<TRIPOS>BOND
     1    34    33    1
     2    32    31    1
     3    31     3    1
     4    33     4    1
     5     4     3    1
     6     4     5    1
     7     3     2    1
     8    28     5    1
     9    28    29    1
    10    26    24    1
    11    30    29    1
    12     5     6    1
    13     2    23    1
    14     2     1    1
    15     6     1    1
    16    24    23   am
    17    24    25    2
    18    23    27    1
    19     1     7    1
    20     7     8    1
    21    21    22    1
    22    21    13    1
    23     8    13    1
    24     8     9    1
    25    18    17    1
    26    13    12    1
    27    12    19    1
    28    12    11    1
    29     9    10    1
    30     9    14    1
    31    10    11    1
    32    19    20    1
    33    17    16    1
    34    11    16    1
    35    14    15    1
