@<TRIPOS>MOLECULE
/tmp/ewbell/vina_2arb_2arb_lig/vina/vina3.pdbqt
 34 35 0 0 0
SMALL
GASTEIGER

@<TRIPOS>ATOM
      1  C1         3.2410   40.9740   22.4040 C.3   487  INH487      0.2860
      2  C2         2.4060   40.3940   21.2520 C.3   487  INH487      0.1700
      3  C3         3.2820   39.5130   20.3530 C.3   487  INH487      0.1770
      4  C4         4.5950   40.2220   19.9840 C.3   487  INH487      0.1800
      5  C5         5.3020   40.7570   21.2210 C.3   487  INH487      0.1790
      6  O3         4.4220   41.6360   21.9400 O.3   487  INH487     -0.3490
      7  O7         2.4870   41.8980   23.0910 O.3   487  INH487     -0.3460
      8  C10        2.6890   41.8890   24.5140 C.3   487  INH487      0.2110
      9  C9         3.0530   40.4780   24.9790 C.3   487  INH487      0.2890
     10  O10        1.9270   39.5840   24.8460 O.3   487  INH487     -0.3490
     11  C13        0.7530   40.0230   25.5980 C.3   487  INH487      0.1790
     12  C12        0.2820   41.3990   25.0920 C.3   487  INH487      0.1800
     13  C11        1.4270   42.3870   25.2460 C.3   487  INH487      0.1830
     14  O6         3.4400   40.5220   26.3130 O.3   487  INH487     -0.3690
     15  H22        4.3350   40.8360   26.3740 H     487  INH487      0.2120
     16  C14       -0.3010   38.9400   25.4490 C.3   487  INH487      0.1980
     17  O11        0.0710   38.0100   24.4370 O.3   487  INH487     -0.3980
     18  H25       -0.1460   38.3670   23.5840 H     487  INH487      0.2090
     19  O9        -0.8170   41.8600   25.8690 O.3   487  INH487     -0.3900
     20  H24       -0.4980   42.4190   26.5670 H     487  INH487      0.2100
     21  O8         1.0480   43.6610   24.7670 O.3   487  INH487     -0.3900
     22  H23        1.4940   43.8380   23.9490 H     487  INH487      0.2100
     23  N1         1.3250   39.6070   21.8380 N.am  487  INH487     -0.3490
     24  C7         0.0400   39.8800   21.6090 C.2   487  INH487      0.2140
     25  O5        -0.8970   39.2440   22.0970 O.2   487  INH487     -0.2740
     26  C8        -0.2500   41.0720   20.7140 C.3   487  INH487      0.1170
     27  H11        1.5560   38.8370   22.4330 H     487  INH487      0.1630
     28  C6         6.5480   41.5500   20.8670 C.3   487  INH487      0.1980
     29  O4         6.5560   41.9310   19.4970 O.3   487  INH487     -0.3980
     30  H14        5.9670   41.3690   19.0080 H     487  INH487      0.2090
     31  O1         2.5630   39.2150   19.1650 O.3   487  INH487     -0.3910
     32  H12        2.0540   39.9740   18.9030 H     487  INH487      0.2100
     33  O2         5.4610   39.3180   19.3170 O.3   487  INH487     -0.3900
     34  H13        4.9550   38.5940   18.9690 H     487  INH487      0.2100
@<TRIPOS>BOND
     1    32    31    1
     2    34    33    1
     3    30    29    1
     4    31     3    1
     5    33     4    1
     6    29    28    1
     7     4     3    1
     8     4     5    1
     9     3     2    1
    10    26    24    1
    11    28     5    1
    12     5     6    1
    13     2    23    1
    14     2     1    1
    15    24    23   am
    16    24    25    2
    17    23    27    1
    18     6     1    1
    19     1     7    1
    20     7     8    1
    21    18    17    1
    22    22    21    1
    23    17    16    1
    24     8     9    1
    25     8    13    1
    26    21    13    1
    27    10     9    1
    28    10    11    1
    29     9    14    1
    30    12    13    1
    31    12    11    1
    32    12    19    1
    33    16    11    1
    34    19    20    1
    35    14    15    1
