@<TRIPOS>MOLECULE
./ligand/2qbq_lig.pdb
 57 59 0 0 0
SMALL
GASTEIGER

@<TRIPOS>ATOM
      1  S1        44.6110   14.0460    0.5060 S.2   300  INH300     -0.0769
      2  C1        44.7660   15.4390    1.5570 C.ar  300  INH300      0.1436
      3  C2        45.6230   15.1800    2.5630 C.ar  300  INH300      0.1570
      4  C3        46.1880   13.8140    2.5260 C.ar  300  INH300      0.0751
      5  C4        45.7320   13.0860    1.4880 C.ar  300  INH300      0.0378
      6  C5        44.0300   16.6790    1.2250 C.2   300  INH300      0.3966
      7  O1        43.5770   16.7220    0.0620 O.co2 300  INH300     -0.2399
      8  O2        43.8610   17.6020    2.0480 O.co2 300  INH300     -0.2399
      9  C6        46.0430   11.6520    1.1530 C.ar  300  INH300     -0.0084
     10  C7        47.3940   11.1220    1.2180 C.ar  300  INH300     -0.0326
     11  C8        47.6340    9.7720    0.8020 C.ar  300  INH300      0.0279
     12  C9        46.5410    8.9630    0.2800 C.ar  300  INH300     -0.0408
     13  C10       45.1890    9.4480    0.2030 C.ar  300  INH300     -0.0594
     14  C11       44.9770   10.8000    0.6540 C.ar  300  INH300     -0.0534
     15 Br1        47.4150   13.2710    3.8780 Br    300  INH300     -0.0453
     16  O3        45.9150   16.0160    3.5510 O.3   300  INH300     -0.4781
     17  C12       47.0570   16.8320    3.3680 C.3   300  INH300      0.1902
     18  C13       47.4380   17.4450    4.7040 C.2   300  INH300      0.3927
     19  O4        46.6490   17.4000    5.6750 O.co2 300  INH300     -0.2425
     20  O5        48.5590   17.9810    4.7670 O.co2 300  INH300     -0.2425
     21  N1        48.9250    9.3140    0.9620 N.pl3 300  INH300     -0.3409
     22  C14       49.2920    7.9430    1.3340 C.3   300  INH300      0.0216
     23  C15       50.8110    7.7520    1.2640 C.3   300  INH300     -0.0294
     24  C16       51.2020    6.3090    1.6550 C.3   300  INH300     -0.0327
     25  C17       50.5160    5.8480    2.9610 C.3   300  INH300     -0.0426
     26  C18       49.0100    6.1590    3.0880 C.3   300  INH300     -0.0327
     27  C19       48.7280    7.6260    2.7220 C.3   300  INH300     -0.0294
     28  C20       52.7280    6.2000    1.8710 C.3   300  INH300     -0.0597
     29  C21       50.8260    5.3220    0.5100 C.3   300  INH300     -0.0597
     30  C22       48.7000    5.9580    4.5790 C.3   300  INH300     -0.0597
     31  C23       48.0950    5.2090    2.2450 C.3   300  INH300     -0.0597
     32  H1        48.2100   11.7400    1.5760 H     300  INH300      0.0642
     33  H2        46.7550    7.9570   -0.0640 H     300  INH300      0.0636
     34  H3        44.3790    8.8330   -0.1720 H     300  INH300      0.0618
     35  H4        43.9710   11.2020    0.6190 H     300  INH300      0.0624
     36  H5        46.8290   17.6300    2.6460 H     300  INH300      0.0817
     37  H6        47.8910   16.2220    2.9900 H     300  INH300      0.0817
     38  H7        49.6900    9.9860    0.8090 H     300  INH300      0.1463
     39  H8        48.8320    7.2520    0.6120 H     300  INH300      0.0498
     40  H9        51.2950    8.4570    1.9560 H     300  INH300      0.0288
     41  H10       51.1530    7.9520    0.2380 H     300  INH300      0.0288
     42  H11       51.0310    6.3370    3.8010 H     300  INH300      0.0276
     43  H12       50.6410    4.7580    3.0390 H     300  INH300      0.0276
     44  H13       47.6410    7.7980    2.7200 H     300  INH300      0.0288
     45  H14       49.2020    8.2830    3.4660 H     300  INH300      0.0288
     46  H15       53.2510    6.5210    0.9580 H     300  INH300      0.0235
     47  H16       52.9930    5.1570    2.0970 H     300  INH300      0.0235
     48  H17       53.0260    6.8450    2.7110 H     300  INH300      0.0235
     49  H18       49.7430    5.3700    0.3250 H     300  INH300      0.0235
     50  H19       51.1030    4.2980    0.8030 H     300  INH300      0.0235
     51  H20       51.3670    5.6000   -0.4070 H     300  INH300      0.0235
     52  H21       48.8970    4.9120    4.8570 H     300  INH300      0.0235
     53  H22       47.6430    6.1950    4.7690 H     300  INH300      0.0235
     54  H23       49.3380    6.6230    5.1790 H     300  INH300      0.0235
     55  H24       48.3110    5.3470    1.1750 H     300  INH300      0.0235
     56  H25       47.0390    5.4490    2.4400 H     300  INH300      0.0235
     57  H26       48.2920    4.1640    2.5270 H     300  INH300      0.0235
@<TRIPOS>BOND
     1     1     5   ar
     2     1     2   ar
     3     2     6    1
     4     2     3   ar
     5     3    16    1
     6     3     4   ar
     7     4    15    1
     8     4     5   ar
     9     5     9    1
    10     6     8   ar
    11     6     7   ar
    12     9    14   ar
    13     9    10   ar
    14    10    32    1
    15    10    11   ar
    16    11    21    1
    17    11    12   ar
    18    12    33    1
    19    12    13   ar
    20    13    34    1
    21    13    14   ar
    22    14    35    1
    23    16    17    1
    24    17    37    1
    25    17    36    1
    26    17    18    1
    27    18    20   ar
    28    18    19   ar
    29    21    38    1
    30    21    22    1
    31    22    39    1
    32    22    27    1
    33    22    23    1
    34    23    41    1
    35    23    40    1
    36    23    24    1
    37    24    29    1
    38    24    28    1
    39    24    25    1
    40    25    43    1
    41    25    42    1
    42    25    26    1
    43    26    31    1
    44    26    30    1
    45    26    27    1
    46    27    45    1
    47    27    44    1
    48    28    48    1
    49    28    47    1
    50    28    46    1
    51    29    51    1
    52    29    50    1
    53    29    49    1
    54    30    54    1
    55    30    53    1
    56    30    52    1
    57    31    57    1
    58    31    56    1
    59    31    55    1
