@<TRIPOS>MOLECULE
/tmp/ewbell/vina_2qbq_2qbq_lig/vina/vina5.pdbqt
 34 36 0 0 0
SMALL
GASTEIGER

@<TRIPOS>ATOM
      1  C6        45.0220   12.5060    0.2760 C.ar  300  INH300     -0.0150
      2  C7        45.0890   12.6860   -1.1650 C.ar  300  INH300      0.0420
      3  C8        44.8290   11.5660   -2.0200 C.ar  300  INH300      0.0290
      4  C9        44.4600   10.2790   -1.4470 C.ar  300  INH300      0.0290
      5  C10       44.3850   10.0580   -0.0280 C.ar  300  INH300      0.0030
      6  C11       44.6790   11.1970    0.8050 C.ar  300  INH300      0.0130
      7  C4        45.1940   13.6560    1.2310 C.ar  300  INH300      0.0360
      8  S1        44.2450   15.1440    1.0740 S.2   300  INH300     -0.0790
      9  C1        44.9670   15.8450    2.5090 C.ar  300  INH300      0.1140
     10  C2        45.8720   15.0020    3.0420 C.ar  300  INH300      0.1120
     11  C3        46.0090   13.7300    2.3020 C.ar  300  INH300      0.0640
     12 Br1        47.2410   12.4150    2.9200 Br    300  INH300     -0.0470
     13  C5        44.5700   17.2090    2.9230 C.2   300  INH300      0.1860
     14  O2        44.3020   18.1090    2.1010 O.2   300  INH300     -0.6460
     15  O1        44.5430   17.3930    4.1580 O.3   300  INH300     -0.7720
     16  H         45.3400   17.5480    4.6260 H     300  INH300      0.1670
     17  O3        46.5550   15.2230    4.1580 O.3   300  INH300     -0.3380
     18  C12       47.7890   15.9020    4.0180 C.3   300  INH300      0.2850
     19  C13       47.7800   17.1250    4.9180 C.2   300  INH300      0.1640
     20  O5        48.7830   17.8590    4.8640 O.2   300  INH300     -0.6480
     21  O4        46.8030   17.3590    5.6660 O.3   300  INH300     -0.7750
     22  H         46.5130   18.2410    5.7930 H     300  INH300      0.1670
     23  N1        44.9850   11.7930   -3.3710 N.pl3 300  INH300     -0.3850
     24  H7        44.3890   11.2540   -4.0150 H     300  INH300      0.1600
     25  C14       45.9340   12.7430   -3.9620 C.3   300  INH300      0.0830
     26  C19       47.3200   12.5230   -3.3480 C.3   300  INH300      0.0340
     27  C18       48.3530   13.4370   -4.0280 C.3   300  INH300     -0.0450
     28  C17       47.8940   14.9090   -3.9750 C.3   300  INH300      0.0170
     29  C23       48.6570   12.9210   -5.4740 C.3   300  INH300      0.0150
     30  C22       49.6500   13.4080   -3.2040 C.3   300  INH300      0.0150
     31  C16       46.4360   15.1870   -4.4050 C.3   300  INH300     -0.0450
     32  C15       45.4390   14.1830   -3.7850 C.3   300  INH300      0.0340
     33  C21       46.3480   15.1390   -5.9600 C.3   300  INH300      0.0150
     34  C20       46.0930   16.6290   -3.9720 C.3   300  INH300      0.0150
@<TRIPOS>BOND
     1    33    31    1
     2    29    27    1
     3    31    28    1
     4    31    34    1
     5    31    32    1
     6    27    28    1
     7    27    26    1
     8    27    30    1
     9    24    23    1
    10    25    32    1
    11    25    23    1
    12    25    26    1
    13    23     3    1
    14     3     4   ar
    15     3     2   ar
    16     4     5   ar
    17     2     1   ar
    18     5     6   ar
    19     1     6   ar
    20     1     7    1
    21     8     7   ar
    22     8     9   ar
    23     7    11   ar
    24    14    13    2
    25    11    12    1
    26    11    10   ar
    27     9    13    1
    28     9    10   ar
    29    13    15    1
    30    10    17    1
    31    18    17    1
    32    18    19    1
    33    15    16    1
    34    20    19    2
    35    19    21    1
    36    21    22    1
