@<TRIPOS>MOLECULE
/tmp/ewbell/vina_2qbq_2qbq_lig/vina/vina1.pdbqt
 34 36 0 0 0
SMALL
GASTEIGER

@<TRIPOS>ATOM
      1  C6        44.9090   12.2630    0.2880 C.ar  300  INH300     -0.0150
      2  C7        44.5940   12.3720   -1.1270 C.ar  300  INH300      0.0420
      3  C8        44.2830   11.1840   -1.8640 C.ar  300  INH300      0.0290
      4  C9        44.2420    9.8940   -1.1890 C.ar  300  INH300      0.0290
      5  C10       44.5500    9.7420    0.2070 C.ar  300  INH300      0.0030
      6  C11       44.8850   10.9520    0.9150 C.ar  300  INH300      0.0130
      7  C4        45.1570   13.4760    1.1450 C.ar  300  INH300      0.0360
      8  S1        44.2850   14.9950    0.8770 S.2   300  INH300     -0.0790
      9  C1        45.0650   15.7700    2.2420 C.ar  300  INH300      0.1140
     10  C2        45.9320   14.9260    2.8330 C.ar  300  INH300      0.1120
     11  C3        45.9900   13.5920    2.1970 C.ar  300  INH300      0.0640
     12 Br1        47.1600   12.2670    2.9070 Br    300  INH300     -0.0470
     13  C5        44.7470   17.1820    2.5470 C.2   300  INH300      0.1860
     14  O2        44.6580   18.0580    1.6620 O.2   300  INH300     -0.6460
     15  O1        44.5950   17.4330    3.7620 O.3   300  INH300     -0.7720
     16  H         44.1230   16.8350    4.3070 H     300  INH300      0.1670
     17  O3        46.6420   15.1990    3.9200 O.3   300  INH300     -0.3380
     18  C12       47.8030   15.9880    3.7320 C.3   300  INH300      0.2850
     19  C13       47.8180   17.0910    4.7750 C.2   300  INH300      0.1640
     20  O5        46.8240   17.1610    5.5200 O.2   300  INH300     -0.6480
     21  O4        48.7910   17.8750    4.8600 O.3   300  INH300     -0.7750
     22  H         49.6640   17.5360    4.8790 H     300  INH300      0.1670
     23  N1        44.0690   11.3550   -3.2160 N.pl3 300  INH300     -0.3850
     24  H7        44.8910   11.3230   -3.8350 H     300  INH300      0.1600
     25  C14       42.7590   11.5780   -3.8390 C.3   300  INH300      0.0830
     26  C19       42.3160   13.0220   -3.5850 C.3   300  INH300      0.0340
     27  C18       40.9950   13.3080   -4.3190 C.3   300  INH300     -0.0450
     28  C17       39.9220   12.2690   -3.9320 C.3   300  INH300      0.0170
     29  C23       41.2480   13.4120   -5.8600 C.3   300  INH300      0.0150
     30  C22       40.4350   14.6460   -3.8130 C.3   300  INH300      0.0150
     31  C16       40.3570   10.7870   -3.9840 C.3   300  INH300     -0.0450
     32  C15       41.7370   10.5560   -3.3300 C.3   300  INH300      0.0340
     33  C21       40.3810   10.3180   -5.4690 C.3   300  INH300      0.0150
     34  C20       39.2690    9.9610   -3.2620 C.3   300  INH300      0.0150
@<TRIPOS>BOND
     1    29    27    1
     2    33    31    1
     3    27    28    1
     4    27    30    1
     5    27    26    1
     6    31    28    1
     7    31    32    1
     8    31    34    1
     9    25    26    1
    10    25    32    1
    11    25    23    1
    12    24    23    1
    13    23     3    1
    14     3     4   ar
    15     3     2   ar
    16     4     5   ar
    17     2     1   ar
    18     5     6   ar
    19     1     6   ar
    20     1     7    1
    21     8     7   ar
    22     8     9   ar
    23     7    11   ar
    24    14    13    2
    25    11    10   ar
    26    11    12    1
    27     9    13    1
    28     9    10   ar
    29    13    15    1
    30    10    17    1
    31    18    17    1
    32    18    19    1
    33    15    16    1
    34    19    21    1
    35    19    20    2
    36    21    22    1
