@<TRIPOS>MOLECULE
/tmp/ewbell/vina_2qbq_2qbq_lig/vina/vina2.pdbqt
 34 36 0 0 0
SMALL
GASTEIGER

@<TRIPOS>ATOM
      1  C6        44.9730   12.3820    0.2780 C.ar  300  INH300     -0.0150
      2  C7        45.3320   11.0290    0.6700 C.ar  300  INH300      0.0420
      3  C8        45.1810    9.9650   -0.2770 C.ar  300  INH300      0.0290
      4  C9        44.7150   10.2500   -1.6280 C.ar  300  INH300      0.0290
      5  C10       44.3450   11.5720   -2.0550 C.ar  300  INH300      0.0030
      6  C11       44.4830   12.6160   -1.0700 C.ar  300  INH300      0.0130
      7  C4        45.1890   13.5600    1.1890 C.ar  300  INH300      0.0360
      8  S1        44.2690   15.0620    0.9980 S.2   300  INH300     -0.0790
      9  C1        45.0350   15.7970    2.3930 C.ar  300  INH300      0.1140
     10  C2        45.9320   14.9530    2.9390 C.ar  300  INH300      0.1120
     11  C3        46.0270   13.6530    2.2410 C.ar  300  INH300      0.0640
     12 Br1        47.2420   12.3330    2.8800 Br    300  INH300     -0.0470
     13  C5        44.6760   17.1820    2.7670 C.2   300  INH300      0.1860
     14  O2        44.4960   18.0810    1.9200 O.2   300  INH300     -0.6460
     15  O1        44.5860   17.3860    3.9960 O.3   300  INH300     -0.7720
     16  H         45.1370   18.0230    4.4060 H     300  INH300      0.1670
     17  O3        46.6420   15.1970    4.0330 O.3   300  INH300     -0.3380
     18  C12       47.8220   15.9600    3.8610 C.3   300  INH300      0.2850
     19  C13       47.8020   17.1190    4.8410 C.2   300  INH300      0.1640
     20  O5        46.8040   17.2020    5.5790 O.2   300  INH300     -0.6480
     21  O4        48.7510   17.9340    4.8850 O.3   300  INH300     -0.7750
     22  H         49.6160   17.6350    5.0830 H     300  INH300      0.1670
     23  N1        45.4700    8.7000    0.1890 N.pl3 300  INH300     -0.3850
     24  H7        44.6770    8.0830    0.4120 H     300  INH300      0.1600
     25  C14       46.8220    8.1650    0.3890 C.3   300  INH300      0.0830
     26  C19       47.0760    7.9800    1.8880 C.3   300  INH300      0.0340
     27  C18       48.4480    7.3220    2.1170 C.3   300  INH300     -0.0450
     28  C17       49.5600    8.1240    1.4080 C.3   300  INH300      0.0170
     29  C23       48.3950    5.8130    1.7040 C.3   300  INH300      0.0150
     30  C22       48.7940    7.4190    3.6100 C.3   300  INH300      0.0150
     31  C16       49.2900    8.5120   -0.0630 C.3   300  INH300     -0.0450
     32  C15       47.8660    9.0710   -0.2720 C.3   300  INH300      0.0340
     33  C21       49.5140    7.2620   -0.9660 C.3   300  INH300      0.0150
     34  C20       50.3500    9.5620   -0.4650 C.3   300  INH300      0.0150
@<TRIPOS>BOND
     1     5     4   ar
     2     5     6   ar
     3     4     3   ar
     4     6     1   ar
     5    33    31    1
     6    34    31    1
     7     3    23    1
     8     3     2   ar
     9    32    31    1
    10    32    25    1
    11    31    28    1
    12    23    25    1
    13    23    24    1
    14     1     2   ar
    15     1     7    1
    16    25    26    1
    17     8     7   ar
    18     8     9   ar
    19     7    11   ar
    20    28    27    1
    21    29    27    1
    22    26    27    1
    23    14    13    2
    24    27    30    1
    25    11    12    1
    26    11    10   ar
    27     9    13    1
    28     9    10   ar
    29    13    15    1
    30    10    17    1
    31    18    17    1
    32    18    19    1
    33    15    16    1
    34    19    21    1
    35    19    20    2
    36    21    22    1
