@<TRIPOS>MOLECULE
/tmp/ewbell/vina_2qbq_2qbq_lig/vina/vina3.pdbqt
 34 36 0 0 0
SMALL
GASTEIGER

@<TRIPOS>ATOM
      1  C6        45.7530   11.5410    0.9480 C.ar  300  INH300     -0.0150
      2  C7        47.0640   10.9280    0.8120 C.ar  300  INH300      0.0420
      3  C8        47.1620    9.6100    0.2590 C.ar  300  INH300      0.0290
      4  C9        45.9650    8.9180   -0.2000 C.ar  300  INH300      0.0290
      5  C10       44.6500    9.4870   -0.0790 C.ar  300  INH300      0.0030
      6  C11       44.5820   10.8020    0.5060 C.ar  300  INH300      0.0130
      7  C4        45.5810   12.9540    1.4370 C.ar  300  INH300      0.0360
      8  S1        44.4960   14.0930    0.6200 S.2   300  INH300     -0.0790
      9  C1        44.8210   15.3580    1.7890 C.ar  300  INH300      0.1140
     10  C2        45.7040   14.9310    2.7130 C.ar  300  INH300      0.1120
     11  C3        46.1490   13.5360    2.5110 C.ar  300  INH300      0.0640
     12 Br1        47.3940   12.7650    3.7300 Br    300  INH300     -0.0470
     13  C5        44.1770   16.6780    1.6210 C.2   300  INH300      0.1860
     14  O2        43.0460   16.8140    1.1100 O.2   300  INH300     -0.6460
     15  O1        44.8600   17.6470    2.0140 O.3   300  INH300     -0.7720
     16  H         45.7260   17.7750    1.6800 H     300  INH300      0.1670
     17  O3        46.1160   15.6380    3.7570 O.3   300  INH300     -0.3380
     18  C12       47.3790   16.2670    3.6340 C.3   300  INH300      0.2850
     19  C13       47.5610   17.2300    4.7930 C.2   300  INH300      0.1640
     20  O5        46.5960   17.3490    5.5690 O.2   300  INH300     -0.6480
     21  O4        48.6340   17.8590    4.9380 O.3   300  INH300     -0.7750
     22  H         49.4440   17.3930    5.0000 H     300  INH300      0.1670
     23  N1        48.4280    9.0640    0.2290 N.pl3 300  INH300     -0.3850
     24  H7        49.1020    9.4620   -0.4410 H     300  INH300      0.1600
     25  C14       48.8900    7.9610    1.0790 C.3   300  INH300      0.0830
     26  C19       48.5270    6.6270    0.4190 C.3   300  INH300      0.0340
     27  C18       49.0930    5.4570    1.2410 C.3   300  INH300     -0.0450
     28  C17       48.6310    5.5510    2.7100 C.3   300  INH300      0.0170
     29  C23       50.6470    5.3830    1.0700 C.3   300  INH300      0.0150
     30  C22       48.4710    4.1500    0.7250 C.3   300  INH300      0.0150
     31  C16       48.7950    6.9290    3.3910 C.3   300  INH300     -0.0450
     32  C15       48.3120    8.0890    2.4930 C.3   300  INH300      0.0340
     33  C21       50.2920    7.1320    3.7710 C.3   300  INH300      0.0150
     34  C20       47.9890    6.8910    4.7090 C.3   300  INH300      0.0150
@<TRIPOS>BOND
     1    24    23    1
     2     4     5   ar
     3     4     3   ar
     4     5     6   ar
     5    23     3    1
     6    23    25    1
     7     3     2   ar
     8    26    25    1
     9    26    27    1
    10     6     1   ar
    11     8     7   ar
    12     8     9   ar
    13    30    27    1
    14     2     1   ar
    15     1     7    1
    16    29    27    1
    17    25    32    1
    18    14    13    2
    19    27    28    1
    20     7    11   ar
    21    13     9    1
    22    13    15    1
    23    16    15    1
    24     9    10   ar
    25    32    31    1
    26    11    10   ar
    27    11    12    1
    28    28    31    1
    29    10    17    1
    30    31    33    1
    31    31    34    1
    32    18    17    1
    33    18    19    1
    34    19    21    1
    35    19    20    2
    36    21    22    1
