@<TRIPOS>MOLECULE
/tmp/ewbell/vina_2qbq_2qbq_lig/vina/vina4.pdbqt
 34 36 0 0 0
SMALL
GASTEIGER

@<TRIPOS>ATOM
      1  C6        44.9010   12.3680    0.3600 C.ar  300  INH300     -0.0150
      2  C7        44.5810   12.5050   -1.0510 C.ar  300  INH300      0.0420
      3  C8        44.2680   11.3320   -1.8110 C.ar  300  INH300      0.0290
      4  C9        44.2290   10.0290   -1.1620 C.ar  300  INH300      0.0290
      5  C10       44.5430    9.8490    0.2300 C.ar  300  INH300      0.0030
      6  C11       44.8800   11.0450    0.9600 C.ar  300  INH300      0.0130
      7  C4        45.1520   13.5630    1.2400 C.ar  300  INH300      0.0360
      8  S1        44.2440   15.0720    1.0370 S.2   300  INH300     -0.0790
      9  C1        45.0500   15.8270    2.3980 C.ar  300  INH300      0.1140
     10  C2        45.9500   14.9850    2.9410 C.ar  300  INH300      0.1120
     11  C3        46.0140   13.6690    2.2700 C.ar  300  INH300      0.0640
     12 Br1        47.2290   12.3500    2.9110 Br    300  INH300     -0.0470
     13  C5        44.7160   17.2250    2.7490 C.2   300  INH300      0.1860
     14  O2        44.5870   18.1210    1.8900 O.2   300  INH300     -0.6460
     15  O1        44.5910   17.4410    3.9730 O.3   300  INH300     -0.7720
     16  H         44.0460   16.8850    4.4930 H     300  INH300      0.1670
     17  O3        46.6880   15.2450    4.0130 O.3   300  INH300     -0.3380
     18  C12       47.8470   16.0310    3.8050 C.3   300  INH300      0.2850
     19  C13       47.8450   17.1780    4.7990 C.2   300  INH300      0.1640
     20  O5        46.8750   17.2340    5.5770 O.2   300  INH300     -0.6480
     21  O4        48.7800   18.0100    4.8160 O.3   300  INH300     -0.7750
     22  H         48.9670   18.4880    5.5990 H     300  INH300      0.1670
     23  N1        44.0490   11.5300   -3.1580 N.pl3 300  INH300     -0.3850
     24  H7        44.4660   12.3660   -3.5900 H     300  INH300      0.1600
     25  C14       43.2680   10.6390   -4.0240 C.3   300  INH300      0.0830
     26  C19       43.7130   10.8250   -5.4780 C.3   300  INH300      0.0340
     27  C18       42.9820    9.8260   -6.3900 C.3   300  INH300     -0.0450
     28  C17       41.4540    9.9400   -6.2050 C.3   300  INH300      0.0170
     29  C23       43.5400    8.3820   -6.1610 C.3   300  INH300      0.0150
     30  C22       43.2250   10.2310   -7.8520 C.3   300  INH300      0.0150
     31  C16       40.9400    9.9470   -4.7480 C.3   300  INH300     -0.0450
     32  C15       41.7670   10.8830   -3.8380 C.3   300  INH300      0.0340
     33  C21       40.9730    8.4920   -4.1920 C.3   300  INH300      0.0150
     34  C20       39.4610   10.3910   -4.7820 C.3   300  INH300      0.0150
@<TRIPOS>BOND
     1    30    27    1
     2    27    28    1
     3    27    29    1
     4    27    26    1
     5    28    31    1
     6    26    25    1
     7    34    31    1
     8    31    33    1
     9    31    32    1
    10    25    32    1
    11    25    23    1
    12    24    23    1
    13    23     3    1
    14     3     4   ar
    15     3     2   ar
    16     4     5   ar
    17     2     1   ar
    18     5     6   ar
    19     1     6   ar
    20     1     7    1
    21     8     7   ar
    22     8     9   ar
    23     7    11   ar
    24    14    13    2
    25    11    12    1
    26    11    10   ar
    27     9    13    1
    28     9    10   ar
    29    13    15    1
    30    10    17    1
    31    18    17    1
    32    18    19    1
    33    15    16    1
    34    19    21    1
    35    19    20    2
    36    21    22    1
