@<TRIPOS>MOLECULE
./ligand/1d4i_lig.pdb
 87 92 0 0 0
SMALL
GASTEIGER

@<TRIPOS>ATOM
      1  C1         9.7640   24.0840    2.2340 C.ar  203  INH203     -0.0219
      2  C2         9.0440   25.2510    1.8670 C.ar  203  INH203     -0.0564
      3  C3         7.6410   25.3630    2.0030 C.ar  203  INH203     -0.0614
      4  C4         6.9040   24.2720    2.5230 C.ar  203  INH203     -0.0617
      5  C5         7.5850   23.0880    2.8930 C.ar  203  INH203     -0.0614
      6  C6         8.9940   22.9960    2.7470 C.ar  203  INH203     -0.0564
      7  C7        16.2980   22.1490    8.7730 C.ar  203  INH203     -0.0219
      8  C8        15.5700   21.1300    9.4590 C.ar  203  INH203     -0.0564
      9  C9        16.1750   19.9340    9.9220 C.ar  203  INH203     -0.0614
     10  C10       17.5610   19.7290    9.7110 C.ar  203  INH203     -0.0617
     11  C11       18.3150   20.7250    9.0450 C.ar  203  INH203     -0.0614
     12  C12       17.6900   21.9140    8.5860 C.ar  203  INH203     -0.0564
     13  C13       15.5600   23.3580    8.1950 C.3   203  INH203      0.0737
     14  O1        14.5260   23.0150    7.2720 O.3   203  INH203     -0.3627
     15  C14       11.2870   24.0770    2.1480 C.3   203  INH203      0.0738
     16  O2        11.9200   23.5540    3.3130 O.3   203  INH203     -0.3602
     17  C15       15.0310   22.6990    5.9680 C.3   203  INH203      0.1371
     18  C16       13.9910   23.0190    4.9240 C.3   203  INH203      0.0110
     19  C17       13.5020   24.4250    5.0060 C.3   203  INH203      0.0927
     20  O3        14.4830   25.1780    4.3050 O.3   203  INH203     -0.3886
     21  C18       12.1170   24.5380    4.3530 C.3   203  INH203      0.1604
     22  C19       10.9440   24.4850    5.3240 C.2   203  INH203      0.2450
     23  O4        10.6960   23.4920    6.0040 O.2   203  INH203     -0.2729
     24  N1        10.1400   25.6060    5.3730 N.am  203  INH203     -0.3038
     25  C20       15.1400   21.2020    5.8360 C.2   203  INH203      0.2426
     26  O5        14.1930   20.4640    6.0870 O.2   203  INH203     -0.2730
     27  N2        16.3580   20.6920    5.4360 N.am  203  INH203     -0.3038
     28  C21       16.6200   19.2770    5.2610 C.3   203  INH203      0.0748
     29  C22       16.5710   18.8470    3.8200 C.ar  203  INH203     -0.0215
     30  C23       17.5340   17.8490    3.5510 C.ar  203  INH203     -0.0398
     31  C24       15.7320   19.3140    2.7770 C.ar  203  INH203     -0.0565
     32  C25       15.8630   18.7640    1.4680 C.ar  203  INH203     -0.0614
     33  C26       16.8330   17.7550    1.2120 C.ar  203  INH203     -0.0615
     34  C27       18.0180   18.7810    5.6730 C.3   203  INH203      0.0816
     35  O6        18.9370   19.8230    5.3790 O.3   203  INH203     -0.3893
     36  C28       17.6790   17.2890    2.2560 C.ar  203  INH203     -0.0582
     37  C29       18.3090   17.5380    4.7940 C.3   203  INH203      0.0008
     38  C30        8.9680   25.7780    6.2160 C.3   203  INH203      0.0748
     39  C31        9.2560   26.5070    7.5030 C.ar  203  INH203     -0.0215
     40  C32        8.1810   27.3610    7.8600 C.ar  203  INH203     -0.0398
     41  C33       10.4080   26.4460    8.3320 C.ar  203  INH203     -0.0565
     42  C34       10.4670   27.2400    9.5180 C.ar  203  INH203     -0.0614
     43  C35        9.3770   28.0890    9.8630 C.ar  203  INH203     -0.0615
     44  C36        7.8490   26.6630    5.6250 C.3   203  INH203      0.0816
     45  O7         8.4820   27.6840    4.8680 O.3   203  INH203     -0.3893
     46  C37        8.2240   28.1560    9.0350 C.ar  203  INH203     -0.0582
     47  C38        7.0930   27.2730    6.8320 C.3   203  INH203      0.0008
     48  H1         9.5940   26.0940    1.4650 H     203  INH203      0.0621
     49  H2         7.1340   26.2760    1.7120 H     203  INH203      0.0618
     50  H3         5.8280   24.3430    2.6370 H     203  INH203      0.0618
     51  H4         7.0280   22.2470    3.2900 H     203  INH203      0.0618
     52  H5         9.4970   22.0790    3.0310 H     203  INH203      0.0621
     53  H6        14.5100   21.2770    9.6330 H     203  INH203      0.0621
     54  H7        15.5830   19.1840   10.4330 H     203  INH203      0.0618
     55  H8        18.0390   18.8190   10.0560 H     203  INH203      0.0618
     56  H9        19.3770   20.5790    8.8840 H     203  INH203      0.0618
     57  H10       18.2880   22.6630    8.0800 H     203  INH203      0.0621
     58  H11       16.2910   23.9950    7.6760 H     203  INH203      0.0610
     59  H12       15.1100   23.9200    9.0270 H     203  INH203      0.0610
     60  H13       11.6320   25.1110    1.9990 H     203  INH203      0.0610
     61  H14       11.5840   23.4630    1.2850 H     203  INH203      0.0610
     62  H15       15.9860   23.2120    5.7810 H     203  INH203      0.0694
     63  H16       13.1360   22.3410    5.0610 H     203  INH203      0.0321
     64  H17       14.4310   22.8580    3.9290 H     203  INH203      0.0321
     65  H18       13.4390   24.7570    6.0530 H     203  INH203      0.0625
     66  H19       14.5260   24.8800    3.4040 H     203  INH203      0.2099
     67  H20       12.0860   25.5280    3.8740 H     203  INH203      0.0719
     68  H21       10.3860   26.3690    4.7750 H     203  INH203      0.1495
     69  H22       17.1030   21.3350    5.2570 H     203  INH203      0.1495
     70  H23       15.8580   18.7350    5.8410 H     203  INH203      0.0574
     71  H24       14.9950   20.0850    2.9740 H     203  INH203      0.0621
     72  H25       15.2230   19.1150    0.6670 H     203  INH203      0.0618
     73  H26       16.9280   17.3390    0.2150 H     203  INH203      0.0618
     74  H27       18.0550   18.5220    6.7410 H     203  INH203      0.0618
     75  H28       19.8140   19.5500    5.6220 H     203  INH203      0.2099
     76  H29       18.4200   16.5210    2.0660 H     203  INH203      0.0620
     77  H30       19.3840   17.4410    4.5810 H     203  INH203      0.0339
     78  H31       17.9450   16.6160    5.2720 H     203  INH203      0.0339
     79  H32        8.5710   24.7750    6.4310 H     203  INH203      0.0574
     80  H33       11.2370   25.8010    8.0660 H     203  INH203      0.0621
     81  H34       11.3420   27.1960   10.1560 H     203  INH203      0.0618
     82  H35        9.4270   28.6890   10.7640 H     203  INH203      0.0618
     83  H36        7.1660   26.0780    4.9920 H     203  INH203      0.0618
     84  H37        7.8220   28.2510    4.4870 H     203  INH203      0.2099
     85  H38        7.3930   28.8020    9.2960 H     203  INH203      0.0620
     86  H39        6.6880   28.2670    6.5910 H     203  INH203      0.0339
     87  H40        6.2770   26.6160    7.1670 H     203  INH203      0.0339
@<TRIPOS>BOND
     1     1    15    1
     2     1     6   ar
     3     1     2   ar
     4     2    48    1
     5     2     3   ar
     6     3    49    1
     7     3     4   ar
     8     4    50    1
     9     4     5   ar
    10     5    51    1
    11     5     6   ar
    12     6    52    1
    13     7    13    1
    14     7    12   ar
    15     7     8   ar
    16     8    53    1
    17     8     9   ar
    18     9    54    1
    19     9    10   ar
    20    10    55    1
    21    10    11   ar
    22    11    56    1
    23    11    12   ar
    24    12    57    1
    25    13    59    1
    26    13    58    1
    27    13    14    1
    28    14    17    1
    29    15    16    1
    30    15    61    1
    31    15    60    1
    32    16    21    1
    33    17    62    1
    34    17    25    1
    35    17    18    1
    36    18    64    1
    37    18    63    1
    38    18    19    1
    39    19    65    1
    40    19    21    1
    41    19    20    1
    42    20    66    1
    43    21    67    1
    44    21    22    1
    45    22    24   am
    46    22    23    2
    47    24    68    1
    48    24    38    1
    49    25    27   am
    50    25    26    2
    51    27    69    1
    52    27    28    1
    53    28    70    1
    54    28    34    1
    55    28    29    1
    56    29    31   ar
    57    29    30   ar
    58    30    37    1
    59    30    36   ar
    60    31    32   ar
    61    31    71    1
    62    32    33   ar
    63    32    72    1
    64    33    36   ar
    65    33    73    1
    66    34    37    1
    67    34    74    1
    68    34    35    1
    69    35    75    1
    70    36    76    1
    71    37    78    1
    72    37    77    1
    73    38    79    1
    74    38    44    1
    75    38    39    1
    76    39    41   ar
    77    39    40   ar
    78    40    47    1
    79    40    46   ar
    80    41    42   ar
    81    41    80    1
    82    42    43   ar
    83    42    81    1
    84    43    46   ar
    85    43    82    1
    86    44    47    1
    87    44    83    1
    88    44    45    1
    89    45    84    1
    90    46    85    1
    91    47    87    1
    92    47    86    1
