@<TRIPOS>MOLECULE
/tmp/ewbell/vina_1d4i_1d4i_lig/vina/vina4.pdbqt
 52 57 0 0 0
SMALL
GASTEIGER

@<TRIPOS>ATOM
      1  C17       13.1330   24.6260    5.4580 C.3   203  INH203      0.1590
      2  C16       13.4640   23.1780    5.5840 C.3   203  INH203      0.0760
      3  C15       14.9360   22.8970    5.4180 C.3   203  INH203      0.2160
      4  O1        15.6420   23.2800    6.6060 O.3   203  INH203     -0.3720
      5  C13       14.9890   22.8420    7.7980 C.3   203  INH203      0.2070
      6  C7        15.7520   21.7530    8.5550 C.ar  203  INH203     -0.0350
      7  C12       15.1490   20.8930    9.5170 C.ar  203  INH203      0.0090
      8  C11       15.9130   19.9710   10.2770 C.ar  203  INH203      0.0010
      9  C10       17.3140   19.8770   10.0950 C.ar  203  INH203      0.0000
     10  C9        17.9460   20.7120    9.1390 C.ar  203  INH203      0.0010
     11  C8        17.1650   21.6250    8.3880 C.ar  203  INH203      0.0090
     12  C20       14.9460   21.3960    5.3070 C.2   203  INH203      0.2470
     13  N2        16.1580   20.7910    5.0420 N.am  203  INH203     -0.3480
     14  H22       16.9610   21.3750    4.9270 H     203  INH203      0.1630
     15  O5        13.9240   20.7330    5.4580 O.2   203  INH203     -0.2710
     16  C21       16.3330   19.3570    4.9220 C.3   203  INH203      0.1470
     17  C27       17.6910   18.7920    5.3760 C.3   203  INH203      0.1490
     18  C29       17.9170   17.5010    4.5460 C.3   203  INH203      0.0730
     19  C23       17.1820   17.8140    3.2800 C.ar  203  INH203     -0.0470
     20  C22       16.2800   18.8780    3.4960 C.ar  203  INH203     -0.0270
     21  C28       17.3110   17.1980    2.0080 C.ar  203  INH203      0.0080
     22  C24       15.4870   19.3580    2.4230 C.ar  203  INH203      0.0100
     23  C25       15.6040   18.7520    1.1370 C.ar  203  INH203      0.0010
     24  C26       16.5120   17.6770    0.9340 C.ar  203  INH203      0.0010
     25  O6        18.6780   19.7630    5.0600 O.3   203  INH203     -0.3930
     26  H28       19.1160   19.5200    4.2530 H     203  INH203      0.2100
     27  C18       11.6340   24.7990    5.1710 C.3   203  INH203      0.2420
     28  O2        10.9410   23.5330    5.0970 O.3   203  INH203     -0.3690
     29  C14       10.7770   23.0520    3.7660 C.3   203  INH203      0.2070
     30  C1         9.5590   23.6330    3.0540 C.ar  203  INH203     -0.0350
     31  C6         8.2430   23.0890    3.1620 C.ar  203  INH203      0.0090
     32  C5         7.1270   23.7200    2.5550 C.ar  203  INH203      0.0010
     33  C4         7.2960   24.9150    1.8170 C.ar  203  INH203      0.0000
     34  C3         8.5900   25.4720    1.6850 C.ar  203  INH203      0.0010
     35  C2         9.6890   24.8280    2.2990 C.ar  203  INH203      0.0090
     36  C19       10.8980   25.7190    6.1370 C.2   203  INH203      0.2490
     37  N1         9.6810   26.2080    5.7090 N.am  203  INH203     -0.3480
     38  H21        9.3860   25.9500    4.7890 H     203  INH203      0.1630
     39  O4        11.3370   25.9890    7.2530 O.2   203  INH203     -0.2710
     40  C30        8.7900   27.0670    6.4730 C.3   203  INH203      0.1470
     41  C36        8.7390   26.7880    7.9900 C.3   203  INH203      0.1490
     42  C38        7.3400   27.2470    8.4710 C.3   203  INH203      0.0730
     43  C32        6.5050   27.0110    7.2480 C.ar  203  INH203     -0.0470
     44  C31        7.3380   26.9040    6.1050 C.ar  203  INH203     -0.0270
     45  C37        5.0940   26.8870    7.1520 C.ar  203  INH203      0.0080
     46  C33        6.7550   26.6600    4.8330 C.ar  203  INH203      0.0100
     47  C34        5.3370   26.5330    4.7190 C.ar  203  INH203      0.0010
     48  C35        4.5150   26.6470    5.8770 C.ar  203  INH203      0.0010
     49  O7         8.8860   25.3860    8.1610 O.3   203  INH203     -0.3930
     50  H37        8.1900   24.9350    7.6990 H     203  INH203      0.2100
     51  O3        13.9360   25.0760    4.3750 O.3   203  INH203     -0.3920
     52  H19       13.3840   25.2470    3.6210 H     203  INH203      0.2100
@<TRIPOS>BOND
     1    24    23   ar
     2    24    21   ar
     3    23    22   ar
     4    34    33   ar
     5    34    35   ar
     6    33    32   ar
     7    21    19   ar
     8    35    30   ar
     9    22    20   ar
    10    32    31   ar
    11    30    31   ar
    12    30    29    1
    13    19    20   ar
    14    19    18    1
    15    20    16    1
    16    52    51    1
    17    29    28    1
    18    26    25    1
    19    51     1    1
    20    18    17    1
    21    47    46   ar
    22    47    48   ar
    23    38    37    1
    24    46    44   ar
    25    16    13    1
    26    16    17    1
    27    14    13    1
    28    13    12   am
    29    25    17    1
    30    28    27    1
    31    27     1    1
    32    27    36    1
    33    12     3    1
    34    12    15    2
    35     3     2    1
    36     3     4    1
    37     1     2    1
    38    37    36   am
    39    37    40    1
    40    48    45   ar
    41    44    40    1
    42    44    43   ar
    43    36    39    2
    44    40    41    1
    45     4     5    1
    46    45    43   ar
    47    43    42    1
    48    50    49    1
    49     5     6    1
    50    41    49    1
    51    41    42    1
    52    11     6   ar
    53    11    10   ar
    54     6     7   ar
    55    10     9   ar
    56     7     8   ar
    57     9     8   ar
