@<TRIPOS>MOLECULE
/tmp/ewbell/vina_1d4i_1d4i_lig/vina/vina3.pdbqt
 52 57 0 0 0
SMALL
GASTEIGER

@<TRIPOS>ATOM
      1  C17       14.3910   22.9710    4.8510 C.3   203  INH203      0.1590
      2  C16       13.3080   23.7220    5.5490 C.3   203  INH203      0.0760
      3  C15       12.4030   24.4640    4.5970 C.3   203  INH203      0.2160
      4  O1        12.2220   23.6970    3.3990 O.3   203  INH203     -0.3720
      5  C13       11.6340   24.4580    2.3440 C.3   203  INH203      0.2070
      6  C7        10.1280   24.2350    2.1880 C.ar  203  INH203     -0.0350
      7  C12        9.1940   25.2900    1.9810 C.ar  203  INH203      0.0090
      8  C11        7.7950   25.0540    1.9520 C.ar  203  INH203      0.0010
      9  C10        7.2840   23.7450    2.1280 C.ar  203  INH203      0.0000
     10  C9         8.1860   22.6700    2.3270 C.ar  203  INH203      0.0010
     11  C8         9.5800   22.9260    2.3500 C.ar  203  INH203      0.0090
     12  C20       11.1080   24.4820    5.3660 C.2   203  INH203      0.2470
     13  N2        10.4370   25.6850    5.4420 N.am  203  INH203     -0.3480
     14  H22       10.8450   26.4820    4.9950 H     203  INH203      0.1630
     15  O5        10.6580   23.4690    5.8930 O.2   203  INH203     -0.2710
     16  C21        9.1720   25.8600    6.1290 C.3   203  INH203      0.1470
     17  C27        8.1340   26.7630    5.4380 C.3   203  INH203      0.1490
     18  C29        7.2600   27.3570    6.5720 C.3   203  INH203      0.0730
     19  C23        8.2250   27.4050    7.7150 C.ar  203  INH203     -0.0470
     20  C22        9.3210   26.5510    7.4580 C.ar  203  INH203     -0.0270
     21  C28        8.1440   28.1670    8.9090 C.ar  203  INH203      0.0080
     22  C24       10.3730   26.4530    8.4020 C.ar  203  INH203      0.0100
     23  C25       10.3090   27.2120    9.6090 C.ar  203  INH203      0.0010
     24  C26        9.1980   28.0630    9.8580 C.ar  203  INH203      0.0010
     25  O6         8.8500   27.7930    4.7720 O.3   203  INH203     -0.3930
     26  H28        9.3550   28.2890    5.4050 H     203  INH203      0.2100
     27  C18       14.8480   21.7860    5.7130 C.3   203  INH203      0.2420
     28  O2        15.6190   20.8240    4.9580 O.3   203  INH203     -0.3690
     29  C14       14.8680   19.6790    4.5630 C.3   203  INH203      0.2070
     30  C1        15.4970   18.9100    3.4050 C.ar  203  INH203     -0.0350
     31  C6        15.1630   19.1290    2.0340 C.ar  203  INH203      0.0090
     32  C5        15.8420   18.4530    0.9870 C.ar  203  INH203      0.0010
     33  C4        16.8750   17.5330    1.2830 C.ar  203  INH203      0.0000
     34  C3        17.2210   17.2890    2.6340 C.ar  203  INH203      0.0010
     35  C2        16.5320   17.9730    3.6610 C.ar  203  INH203      0.0090
     36  C19       15.6160   22.1680    6.9720 C.2   203  INH203      0.2490
     37  N1        16.0740   21.1240    7.7500 N.am  203  INH203     -0.3480
     38  H21       15.8430   20.1980    7.4500 H     203  INH203      0.1630
     39  O4        15.8540   23.3370    7.2700 O.2   203  INH203     -0.2710
     40  C30       16.8590   21.2480    8.9680 C.3   203  INH203      0.1470
     41  C36       18.3380   21.6400    8.7680 C.3   203  INH203      0.1490
     42  C38       19.1100   21.0590    9.9780 C.3   203  INH203      0.0730
     43  C32       18.2960   19.8430   10.3040 C.ar  203  INH203     -0.0470
     44  C31       17.0080   19.9510    9.7210 C.ar  203  INH203     -0.0270
     45  C37       18.6750   18.7030   11.0600 C.ar  203  INH203      0.0080
     46  C33       16.0720   18.8950    9.8880 C.ar  203  INH203      0.0100
     47  C34       16.4370   17.7410   10.6460 C.ar  203  INH203      0.0010
     48  C35       17.7340   17.6510   11.2270 C.ar  203  INH203      0.0010
     49  O7        18.7710   21.0290    7.5620 O.3   203  INH203     -0.3930
     50  H37       18.4940   20.1200    7.5500 H     203  INH203      0.2100
     51  O3        15.4250   23.9310    4.6760 O.3   203  INH203     -0.3920
     52  H19       15.3070   24.3740    3.8440 H     203  INH203      0.2100
@<TRIPOS>BOND
     1    32    33   ar
     2    32    31   ar
     3    33    34   ar
     4     8     7   ar
     5     8     9   ar
     6     7     6   ar
     7    31    30   ar
     8     9    10   ar
     9     6     5    1
    10     6    11   ar
    11    10    11   ar
    12     5     4    1
    13    34    35   ar
    14     4     3    1
    15    30    35   ar
    16    30    29    1
    17    52    51    1
    18    29    28    1
    19     3    12    1
    20     3     2    1
    21    51     1    1
    22    25    26    1
    23    25    17    1
    24     1     2    1
    25     1    27    1
    26    28    27    1
    27    14    13    1
    28    12    13   am
    29    12    15    2
    30    17    16    1
    31    17    18    1
    32    13    16    1
    33    27    36    1
    34    16    20    1
    35    18    19    1
    36    36    39    2
    37    36    37   am
    38    38    37    1
    39    20    19   ar
    40    20    22   ar
    41    50    49    1
    42    49    41    1
    43    19    21   ar
    44    37    40    1
    45    22    23   ar
    46    41    40    1
    47    41    42    1
    48    21    24   ar
    49    40    44    1
    50    23    24   ar
    51    44    46   ar
    52    44    43   ar
    53    46    47   ar
    54    42    43    1
    55    43    45   ar
    56    47    48   ar
    57    45    48   ar
