@<TRIPOS>MOLECULE
/tmp/ewbell/vina_1d4i_1d4i_lig/vina/vina5.pdbqt
 52 57 0 0 0
SMALL
GASTEIGER

@<TRIPOS>ATOM
      1  C17       14.1840   22.3020    5.8830 C.3   203  INH203      0.1590
      2  C16       12.7820   22.7350    6.1450 C.3   203  INH203      0.0760
      3  C15       12.1370   23.3870    4.9470 C.3   203  INH203      0.2160
      4  O1        10.8680   22.7750    4.6850 O.3   203  INH203     -0.3720
      5  C13       10.6440   22.5490    3.2930 C.3   203  INH203      0.2070
      6  C7         9.5210   23.4030    2.7010 C.ar  203  INH203     -0.0350
      7  C12        9.7260   24.6980    2.1460 C.ar  203  INH203      0.0090
      8  C11        8.6430   25.5040    1.7090 C.ar  203  INH203      0.0010
      9  C10        7.3110   25.0330    1.8110 C.ar  203  INH203      0.0000
     10  C9         7.0710   23.7440    2.3490 C.ar  203  INH203      0.0010
     11  C8         8.1670   22.9540    2.7790 C.ar  203  INH203      0.0090
     12  C20       11.9090   24.7870    5.4530 C.2   203  INH203      0.2470
     13  N2        10.6580   25.0790    5.9580 N.am  203  INH203     -0.3480
     14  H22        9.9670   24.3560    5.9540 H     203  INH203      0.1630
     15  O5        12.7980   25.6320    5.4310 O.2   203  INH203     -0.2710
     16  C21       10.2890   26.3730    6.4970 C.3   203  INH203      0.1470
     17  C27       10.4250   26.5470    8.0210 C.3   203  INH203      0.1490
     18  C29        9.3790   27.6170    8.4250 C.3   203  INH203      0.0730
     19  C23        8.3110   27.4120    7.3960 C.ar  203  INH203     -0.0470
     20  C22        8.8330   26.6970    6.2960 C.ar  203  INH203     -0.0270
     21  C28        6.9540   27.8260    7.4350 C.ar  203  INH203      0.0080
     22  C24        7.9890   26.3710    5.2040 C.ar  203  INH203      0.0100
     23  C25        6.6220   26.7770    5.2260 C.ar  203  INH203      0.0010
     24  C26        6.1100   27.5020    6.3370 C.ar  203  INH203      0.0010
     25  O6        10.1110   25.2960    8.6160 O.3   203  INH203     -0.3930
     26  H28       10.3640   25.3090    9.5320 H     203  INH203      0.2100
     27  C18       14.4870   21.0100    6.6550 C.3   203  INH203      0.2420
     28  O2        15.2780   20.0810    5.8790 O.3   203  INH203     -0.3690
     29  C14       14.6140   19.6090    4.7090 C.3   203  INH203      0.2070
     30  C1        15.5200   18.8090    3.7770 C.ar  203  INH203     -0.0350
     31  C6        15.3650   18.7740    2.3580 C.ar  203  INH203      0.0090
     32  C5        16.2890   18.0900    1.5270 C.ar  203  INH203      0.0010
     33  C4        17.3950   17.4140    2.0940 C.ar  203  INH203      0.0000
     34  C3        17.5690   17.4230    3.4980 C.ar  203  INH203      0.0010
     35  C2        16.6370   18.1120    4.3080 C.ar  203  INH203      0.0090
     36  C19       15.1430   21.2140    8.0140 C.2   203  INH203      0.2490
     37  N1        15.9720   20.2010    8.4520 N.am  203  INH203     -0.3480
     38  H21       16.0580   19.3980    7.8630 H     203  INH203      0.1630
     39  O4        14.9790   22.2350    8.6780 O.2   203  INH203     -0.2710
     40  C30       16.7300   20.1960    9.6930 C.3   203  INH203      0.1470
     41  C36       18.2300   20.5320    9.5570 C.3   203  INH203      0.1490
     42  C38       18.9440   19.8250   10.7360 C.3   203  INH203      0.0730
     43  C32       18.0680   18.6270   10.9490 C.ar  203  INH203     -0.0470
     44  C31       16.8010   18.8400   10.3470 C.ar  203  INH203     -0.0270
     45  C37       18.3750   17.4170   11.6240 C.ar  203  INH203      0.0080
     46  C33       15.8140   17.8200   10.4110 C.ar  203  INH203      0.0100
     47  C34       16.1070   16.5960   11.0870 C.ar  203  INH203      0.0010
     48  C35       17.3830   16.4010   11.6890 C.ar  203  INH203      0.0010
     49  O7        18.6670   19.9940    8.3180 O.3   203  INH203     -0.3930
     50  H37       17.9510   20.0140    7.6940 H     203  INH203      0.2100
     51  O3        14.9780   23.3910    6.3370 O.3   203  INH203     -0.3920
     52  H19       14.6150   24.2050    6.0090 H     203  INH203      0.2100
@<TRIPOS>BOND
     1    32    33   ar
     2    32    31   ar
     3     8     9   ar
     4     8     7   ar
     5     9    10   ar
     6    33    34   ar
     7     7     6   ar
     8    10    11   ar
     9    31    30   ar
    10     6    11   ar
    11     6     5    1
    12     5     4    1
    13    34    35   ar
    14    30    35   ar
    15    30    29    1
    16     4     3    1
    17    29    28    1
    18     3    12    1
    19     3     2    1
    20    22    23   ar
    21    22    20   ar
    22    23    24   ar
    23    15    12    2
    24    12    13   am
    25    28    27    1
    26     1     2    1
    27     1    51    1
    28     1    27    1
    29    14    13    1
    30    13    16    1
    31    52    51    1
    32    20    16    1
    33    20    19   ar
    34    24    21   ar
    35    16    17    1
    36    27    36    1
    37    19    21   ar
    38    19    18    1
    39    50    49    1
    40    38    37    1
    41    36    37   am
    42    36    39    2
    43    17    18    1
    44    17    25    1
    45    49    41    1
    46    37    40    1
    47    25    26    1
    48    41    40    1
    49    41    42    1
    50    40    44    1
    51    44    46   ar
    52    44    43   ar
    53    46    47   ar
    54    42    43    1
    55    43    45   ar
    56    47    48   ar
    57    45    48   ar
