@<TRIPOS>MOLECULE
/tmp/ewbell/vina_1d4i_1d4i_lig/vina/vina1.pdbqt
 52 57 0 0 0
SMALL
GASTEIGER

@<TRIPOS>ATOM
      1  C17       14.5670   23.0490    4.6400 C.3   203  INH203      0.1590
      2  C16       13.0820   23.1430    4.7390 C.3   203  INH203      0.0760
      3  C15       12.5760   24.5580    4.6130 C.3   203  INH203      0.2160
      4  O1        12.1980   24.8210    3.2550 O.3   203  INH203     -0.3720
      5  C13       11.5820   23.6950    2.6290 C.3   203  INH203      0.2070
      6  C7        10.0690   23.8410    2.4490 C.ar  203  INH203     -0.0350
      7  C12        9.4410   25.0390    2.0050 C.ar  203  INH203      0.0090
      8  C11        8.0290   25.1690    1.9560 C.ar  203  INH203      0.0010
      9  C10        7.1950   24.0950    2.3500 C.ar  203  INH203      0.0000
     10  C9         7.7870   22.8830    2.7880 C.ar  203  INH203      0.0010
     11  C8         9.2000   22.7730    2.8270 C.ar  203  INH203      0.0090
     12  C20       11.3350   24.5110    5.4660 C.2   203  INH203      0.2470
     13  N2        10.5360   25.6360    5.4770 N.am  203  INH203     -0.3480
     14  H22       10.8220   26.4240    4.9320 H     203  INH203      0.1630
     15  O5        11.0370   23.5120    6.1130 O.2   203  INH203     -0.2710
     16  C21        9.3030   25.7400    6.2330 C.3   203  INH203      0.1470
     17  C27        8.1920   26.6100    5.6180 C.3   203  INH203      0.1490
     18  C29        7.3530   27.1400    6.8100 C.3   203  INH203      0.0730
     19  C23        8.3740   27.2050    7.9030 C.ar  203  INH203     -0.0470
     20  C22        9.4900   26.4070    7.5690 C.ar  203  INH203     -0.0270
     21  C28        8.3220   27.9360    9.1180 C.ar  203  INH203      0.0080
     22  C24       10.5940   26.3340    8.4560 C.ar  203  INH203      0.0100
     23  C25       10.5600   27.0630    9.6820 C.ar  203  INH203      0.0010
     24  C26        9.4280   27.8580   10.0090 C.ar  203  INH203      0.0010
     25  O6         8.8260   27.6860    4.9410 O.3   203  INH203     -0.3930
     26  H28        9.7290   27.7530    5.2290 H     203  INH203      0.2100
     27  C18       15.1190   22.2120    5.8030 C.3   203  INH203      0.2420
     28  O2        14.4500   22.5010    7.0510 O.3   203  INH203     -0.3690
     29  C14       15.3320   22.9420    8.0810 C.3   203  INH203      0.2070
     30  C1        15.9990   21.7990    8.8410 C.ar  203  INH203     -0.0350
     31  C6        15.2900   20.8810    9.6730 C.ar  203  INH203      0.0090
     32  C5        15.9420   19.7790   10.2850 C.ar  203  INH203      0.0010
     33  C4        17.3260   19.5670   10.0850 C.ar  203  INH203      0.0000
     34  C3        18.0560   20.4670    9.2730 C.ar  203  INH203      0.0010
     35  C2        17.3880   21.5580    8.6710 C.ar  203  INH203      0.0090
     36  C19       15.1160   20.7070    5.5690 C.2   203  INH203      0.2490
     37  N1        16.2820   20.1630    5.0690 N.am  203  INH203     -0.3480
     38  H21       17.0290   20.7960    4.8690 H     203  INH203      0.1630
     39  O4        14.1470   20.0000    5.8400 O.2   203  INH203     -0.2710
     40  C30       16.5200   18.7530    4.8050 C.3   203  INH203      0.1470
     41  C36       17.9480   18.2520    5.1120 C.3   203  INH203      0.1490
     42  C38       18.1980   17.0460    4.1730 C.3   203  INH203      0.0730
     43  C32       17.3550   17.4050    2.9860 C.ar  203  INH203     -0.0470
     44  C31       16.3980   18.3860    3.3490 C.ar  203  INH203     -0.0270
     45  C37       17.4370   16.9030    1.6600 C.ar  203  INH203      0.0080
     46  C33       15.5000   18.8870    2.3680 C.ar  203  INH203      0.0100
     47  C34       15.5690   18.3930    1.0300 C.ar  203  INH203      0.0010
     48  C35       16.5350   17.4050    0.6840 C.ar  203  INH203      0.0010
     49  O7        18.8380   19.3150    4.8030 O.3   203  INH203     -0.3930
     50  H37       19.6680   18.9580    4.5120 H     203  INH203      0.2100
     51  O3        15.0080   24.3990    4.7000 O.3   203  INH203     -0.3920
     52  H19       14.5160   24.8620    5.3670 H     203  INH203      0.2100
@<TRIPOS>BOND
     1    48    47   ar
     2    48    45   ar
     3    47    46   ar
     4    45    43   ar
     5     8     7   ar
     6     8     9   ar
     7     7     6   ar
     8     9    10   ar
     9    46    44   ar
    10     6     5    1
    11     6    11   ar
    12     5     4    1
    13    10    11   ar
    14    43    44   ar
    15    43    42    1
    16     4     3    1
    17    44    40    1
    18    42    41    1
    19    50    49    1
    20     3     2    1
    21     3    12    1
    22     1    51    1
    23     1     2    1
    24     1    27    1
    25    51    52    1
    26    49    41    1
    27    40    37    1
    28    40    41    1
    29    38    37    1
    30    14    13    1
    31    25    26    1
    32    25    17    1
    33    37    36   am
    34    12    13   am
    35    12    15    2
    36    13    16    1
    37    36    27    1
    38    36    39    2
    39    17    16    1
    40    17    18    1
    41    27    28    1
    42    16    20    1
    43    18    19    1
    44    28    29    1
    45    20    19   ar
    46    20    22   ar
    47    19    21   ar
    48    29    30    1
    49    22    23   ar
    50    35    30   ar
    51    35    34   ar
    52    30    31   ar
    53    21    24   ar
    54    34    33   ar
    55    31    32   ar
    56    23    24   ar
    57    33    32   ar
