@<TRIPOS>MOLECULE
/tmp/ewbell/vina_1d4i_1d4i_lig/vina/vina2.pdbqt
 52 57 0 0 0
SMALL
GASTEIGER

@<TRIPOS>ATOM
      1  C17       13.3360   24.4260    5.0810 C.3   203  INH203      0.1590
      2  C16       13.8700   23.0480    4.8890 C.3   203  INH203      0.0760
      3  C15       14.9870   22.7130    5.8450 C.3   203  INH203      0.2160
      4  O1        14.5790   23.0000    7.1890 O.3   203  INH203     -0.3720
      5  C13       15.6840   23.2610    8.0550 C.3   203  INH203      0.2070
      6  C7        16.1960   22.0210    8.7920 C.ar  203  INH203     -0.0350
      7  C12       17.5090   21.4940    8.6270 C.ar  203  INH203      0.0090
      8  C11       17.9100   20.2800    9.2430 C.ar  203  INH203      0.0010
      9  C10       17.0030   19.5520   10.0520 C.ar  203  INH203      0.0000
     10  C9        15.6910   20.0530   10.2450 C.ar  203  INH203      0.0010
     11  C8        15.3110   21.2690    9.6230 C.ar  203  INH203      0.0090
     12  C20       15.0920   21.2200    5.6750 C.2   203  INH203      0.2470
     13  N2        16.3290   20.7110    5.3360 N.am  203  INH203     -0.3480
     14  H22       17.0860   21.3530    5.2110 H     203  INH203      0.1630
     15  O5        14.1250   20.4840    5.8430 O.2   203  INH203     -0.2710
     16  C21       16.5950   19.2970    5.1540 C.3   203  INH203      0.1470
     17  C27       18.0220   18.8200    5.4810 C.3   203  INH203      0.1490
     18  C29       18.2710   17.5740    4.5920 C.3   203  INH203      0.0730
     19  C23       17.4180   17.8690    3.3980 C.ar  203  INH203     -0.0470
     20  C22       16.4620   18.8580    3.7200 C.ar  203  INH203     -0.0270
     21  C28       17.4880   17.3020    2.1000 C.ar  203  INH203      0.0080
     22  C24       15.5550   19.3090    2.7290 C.ar  203  INH203      0.0100
     23  C25       15.6120   18.7520    1.4170 C.ar  203  INH203      0.0010
     24  C26       16.5740   17.7520    1.1070 C.ar  203  INH203      0.0010
     25  O6        18.9090   19.8690    5.1240 O.3   203  INH203     -0.3930
     26  H28       18.7420   20.1360    4.2280 H     203  INH203      0.2100
     27  C18       11.9210   24.5280    4.4930 C.3   203  INH203      0.2420
     28  O2        11.6650   23.5090    3.5020 O.3   203  INH203     -0.3690
     29  C14       11.1040   24.0170    2.2940 C.3   203  INH203      0.2070
     30  C1         9.5780   24.0340    2.2920 C.ar  203  INH203     -0.0350
     31  C6         8.7730   22.9700    2.8000 C.ar  203  INH203      0.0090
     32  C5         7.3600   23.0720    2.8600 C.ar  203  INH203      0.0010
     33  C4         6.7090   24.2440    2.4080 C.ar  203  INH203      0.0000
     34  C3         7.4810   25.3120    1.8910 C.ar  203  INH203      0.0010
     35  C2         8.8880   25.1890    1.8400 C.ar  203  INH203      0.0090
     36  C19       10.7970   24.5230    5.5210 C.2   203  INH203      0.2490
     37  N1        10.0230   25.6630    5.5870 N.am  203  INH203     -0.3480
     38  H21       10.2720   26.4180    4.9810 H     203  INH203      0.1630
     39  O4        10.5610   23.5490    6.2330 O.2   203  INH203     -0.2710
     40  C30        8.8780   25.8660    6.4600 C.3   203  INH203      0.1470
     41  C36        7.7950   26.8260    5.9230 C.3   203  INH203      0.1490
     42  C38        7.0960   27.4340    7.1640 C.3   203  INH203      0.0730
     43  C32        8.2070   27.4310    8.1710 C.ar  203  INH203     -0.0470
     44  C31        9.2280   26.5360    7.7640 C.ar  203  INH203     -0.0270
     45  C37        8.3140   28.1840    9.3700 C.ar  203  INH203      0.0080
     46  C33       10.3920   26.3880    8.5660 C.ar  203  INH203      0.0100
     47  C34       10.5160   27.1380    9.7750 C.ar  203  INH203      0.0010
     48  C35        9.4780   28.0300   10.1700 C.ar  203  INH203      0.0010
     49  O7         8.4640   27.8380    5.1850 O.3   203  INH203     -0.3930
     50  H37        8.2670   28.6870    5.5620 H     203  INH203      0.2100
     51  O3        14.2590   25.2580    4.3910 O.3   203  INH203     -0.3920
     52  H19       15.0090   24.7410    4.1190 H     203  INH203      0.2100
@<TRIPOS>BOND
     1    24    23   ar
     2    24    21   ar
     3    23    22   ar
     4    35    34   ar
     5    35    30   ar
     6    34    33   ar
     7    21    19   ar
     8    30    29    1
     9    30    31   ar
    10    29    28    1
    11    33    32   ar
    12    22    20   ar
    13    31    32   ar
    14    19    20   ar
    15    19    18    1
    16    28    27    1
    17    20    16    1
    18    52    51    1
    19    26    25    1
    20    51     1    1
    21    27     1    1
    22    27    36    1
    23    18    17    1
    24     2     1    1
    25     2     3    1
    26    38    37    1
    27    25    17    1
    28    16    13    1
    29    16    17    1
    30    49    50    1
    31    49    41    1
    32    14    13    1
    33    13    12   am
    34    36    37   am
    35    36    39    2
    36    37    40    1
    37    12    15    2
    38    12     3    1
    39     3     4    1
    40    41    40    1
    41    41    42    1
    42    40    44    1
    43    42    43    1
    44     4     5    1
    45    44    43   ar
    46    44    46   ar
    47     5     6    1
    48    43    45   ar
    49    46    47   ar
    50     7     6   ar
    51     7     8   ar
    52     6    11   ar
    53     8     9   ar
    54    45    48   ar
    55    11    10   ar
    56    47    48   ar
    57     9    10   ar
