@<TRIPOS>MOLECULE
./ligand/1ec0_lig.pdb
 88 93 0 0 0
SMALL
GASTEIGER

@<TRIPOS>ATOM
      1  C1        16.5600   22.0740    8.7360 C.ar  203  INH203      0.0133
      2  C2        17.9710   21.8820    8.4810 C.ar  203  INH203     -0.0536
      3  C3        18.6600   20.7120    8.8980 C.ar  203  INH203     -0.0613
      4  C4        17.9510   19.6690    9.5990 C.ar  203  INH203     -0.0590
      5  C5        16.5510   19.8160    9.8720 C.ar  203  INH203     -0.0261
      6  C6        15.8650   21.0100    9.4430 C.ar  203  INH203      0.1287
      7  C7         9.8300   23.8680    2.2960 C.ar  203  INH203      0.0133
      8  C8         8.8110   22.9360    2.7380 C.ar  203  INH203      0.1287
      9  C9         7.4250   23.3290    2.7330 C.ar  203  INH203     -0.0261
     10  C10        7.0500   24.6440    2.2880 C.ar  203  INH203     -0.0590
     11  C11        8.0620   25.5710    1.8480 C.ar  203  INH203     -0.0613
     12  C12        9.4340   25.1850    1.8550 C.ar  203  INH203     -0.0536
     13  C13       11.3110   23.4870    2.3030 C.3   203  INH203      0.0765
     14  O1        11.7930   23.1120    3.6080 O.3   203  INH203     -0.3600
     15  C14       11.8950   24.2250    4.5510 C.3   203  INH203      0.1628
     16  C15       12.9550   23.9760    5.5860 C.3   203  INH203      0.1185
     17  C16       14.2570   23.6220    4.9800 C.3   203  INH203      0.1185
     18  C17       15.1320   22.8490    6.0000 C.3   203  INH203      0.1628
     19  C18       15.1410   21.3470    5.8310 C.2   203  INH203      0.2451
     20  O2        14.1310   20.6550    6.0000 O.2   203  INH203     -0.2729
     21  N1        16.3590   20.7900    5.4950 N.am  203  INH203     -0.3038
     22  O3        14.7770   23.1250    7.3840 O.3   203  INH203     -0.3600
     23  C19       15.8900   23.3530    8.2520 C.3   203  INH203      0.0765
     24  O4        14.8130   24.8770    4.5610 O.3   203  INH203     -0.3861
     25  O5        13.1170   25.1020    6.4930 O.3   203  INH203     -0.3861
     26  C20       10.6800   24.3210    5.3860 C.2   203  INH203      0.2451
     27  O6        10.2950   23.3310    6.0100 O.2   203  INH203     -0.2729
     28  N2        10.0420   25.5140    5.4090 N.am  203  INH203     -0.3038
     29  C21        8.8530   25.7180    6.1840 C.3   203  INH203      0.0748
     30  C22        9.1420   26.4450    7.4680 C.ar  203  INH203     -0.0215
     31  C23        8.0410   27.2850    7.8160 C.ar  203  INH203     -0.0398
     32  C24       10.3150   26.3960    8.3190 C.ar  203  INH203     -0.0565
     33  C25       10.3540   27.2030    9.5150 C.ar  203  INH203     -0.0614
     34  C26        9.2270   28.0440    9.8480 C.ar  203  INH203     -0.0615
     35  C27        7.7630   26.6090    5.5700 C.3   203  INH203      0.0816
     36  O7         8.4140   27.6650    4.8690 O.3   203  INH203     -0.3893
     37  C28        8.0590   28.0920    8.9990 C.ar  203  INH203     -0.0582
     38  C29        6.9690   27.1580    6.7820 C.3   203  INH203      0.0008
     39  C30       16.6030   19.3700    5.2960 C.3   203  INH203      0.0748
     40  C31       16.5080   18.9380    3.8540 C.ar  203  INH203     -0.0215
     41  C32       17.4320   17.8860    3.5830 C.ar  203  INH203     -0.0398
     42  C33       15.6550   19.4350    2.8070 C.ar  203  INH203     -0.0565
     43  C34       15.7550   18.8480    1.4880 C.ar  203  INH203     -0.0614
     44  C35       16.6880   17.7930    1.2350 C.ar  203  INH203     -0.0615
     45  C36       18.0030   18.8550    5.6630 C.3   203  INH203      0.0816
     46  O8        18.9460   19.8890    5.3350 O.3   203  INH203     -0.3893
     47  C37       17.5400   17.2960    2.2760 C.ar  203  INH203     -0.0582
     48  C38       18.1950   17.5570    4.8220 C.3   203  INH203      0.0008
     49  F1        14.5850   21.0660    9.7270 F     203  INH203     -0.2051
     50  F2         9.1310   21.7320    3.1530 F     203  INH203     -0.2051
     51  H1        18.5200   22.6550    7.9550 H     203  INH203      0.0622
     52  H2        19.7180   20.6030    8.6900 H     203  INH203      0.0618
     53  H3        18.4760   18.7760    9.9190 H     203  INH203      0.0618
     54  H4        16.0120   19.0350   10.3970 H     203  INH203      0.0646
     55  H5         6.6640   22.6320    3.0650 H     203  INH203      0.0646
     56  H6         6.0070   24.9380    2.2830 H     203  INH203      0.0618
     57  H7         7.7800   26.5620    1.5120 H     203  INH203      0.0618
     58  H8        10.1900   25.8890    1.5250 H     203  INH203      0.0622
     59  H9        11.8960   24.3490    1.9480 H     203  INH203      0.0611
     60  H10       11.4570   22.6380    1.6190 H     203  INH203      0.0611
     61  H11       12.0820   25.1590    4.0010 H     203  INH203      0.0720
     62  H12       12.6240   23.1150    6.1850 H     203  INH203      0.0651
     63  H13       14.1040   22.9790    4.1010 H     203  INH203      0.0651
     64  H14       16.1630   23.2000    5.8450 H     203  INH203      0.0720
     65  H15       17.1340   21.4120    5.3790 H     203  INH203      0.1495
     66  H16       16.6360   23.9520    7.7100 H     203  INH203      0.0611
     67  H17       15.5370   23.9140    9.1300 H     203  INH203      0.0611
     68  H18       14.2260   25.2920    3.9400 H     203  INH203      0.2100
     69  H19       12.2770   25.3220    6.8770 H     203  INH203      0.2100
     70  H20       10.4090   26.2730    4.8720 H     203  INH203      0.1495
     71  H21        8.4300   24.7250    6.3960 H     203  INH203      0.0574
     72  H22       11.1540   25.7600    8.0600 H     203  INH203      0.0621
     73  H23       11.2250   27.1780   10.1600 H     203  INH203      0.0618
     74  H24        9.2580   28.6480   10.7480 H     203  INH203      0.0618
     75  H25        7.1080   26.0420    4.8920 H     203  INH203      0.0618
     76  H26        7.7620   28.2340    4.4770 H     203  INH203      0.2099
     77  H27        7.2160   28.7240    9.2520 H     203  INH203      0.0620
     78  H28        6.5140   28.1330    6.5540 H     203  INH203      0.0339
     79  H29        6.1860   26.4540    7.1010 H     203  INH203      0.0339
     80  H30       15.8530   18.8330    5.8950 H     203  INH203      0.0574
     81  H31       14.9500   20.2350    3.0030 H     203  INH203      0.0621
     82  H32       15.1200   19.2090    0.6870 H     203  INH203      0.0618
     83  H33       16.7520   17.3630    0.2420 H     203  INH203      0.0618
     84  H34       18.0720   18.6220    6.7360 H     203  INH203      0.0618
     85  H35       19.8240   19.5970    5.5520 H     203  INH203      0.2099
     86  H36       18.2470   16.4970    2.0830 H     203  INH203      0.0620
     87  H37       19.2570   17.3750    4.6030 H     203  INH203      0.0339
     88  H38       17.7710   16.6810    5.3340 H     203  INH203      0.0339
@<TRIPOS>BOND
     1     1    23    1
     2     1     6   ar
     3     1     2   ar
     4     2    51    1
     5     2     3   ar
     6     3    52    1
     7     3     4   ar
     8     4    53    1
     9     4     5   ar
    10     5    54    1
    11     5     6   ar
    12     6    49    1
    13     7    13    1
    14     7    12   ar
    15     7     8   ar
    16     8    50    1
    17     8     9   ar
    18     9    55    1
    19     9    10   ar
    20    10    56    1
    21    10    11   ar
    22    11    57    1
    23    11    12   ar
    24    12    58    1
    25    13    60    1
    26    13    59    1
    27    13    14    1
    28    14    15    1
    29    15    61    1
    30    15    26    1
    31    15    16    1
    32    16    62    1
    33    16    25    1
    34    16    17    1
    35    17    63    1
    36    17    24    1
    37    17    18    1
    38    18    64    1
    39    18    22    1
    40    18    19    1
    41    19    21   am
    42    19    20    2
    43    21    65    1
    44    21    39    1
    45    22    23    1
    46    23    67    1
    47    23    66    1
    48    24    68    1
    49    25    69    1
    50    26    28   am
    51    26    27    2
    52    28    70    1
    53    28    29    1
    54    29    71    1
    55    29    35    1
    56    29    30    1
    57    30    32   ar
    58    30    31   ar
    59    31    38    1
    60    31    37   ar
    61    32    33   ar
    62    32    72    1
    63    33    34   ar
    64    33    73    1
    65    34    37   ar
    66    34    74    1
    67    35    38    1
    68    35    75    1
    69    35    36    1
    70    36    76    1
    71    37    77    1
    72    38    79    1
    73    38    78    1
    74    39    80    1
    75    39    45    1
    76    39    40    1
    77    40    42   ar
    78    40    41   ar
    79    41    48    1
    80    41    47   ar
    81    42    43   ar
    82    42    81    1
    83    43    44   ar
    84    43    82    1
    85    44    47   ar
    86    44    83    1
    87    45    48    1
    88    45    84    1
    89    45    46    1
    90    46    85    1
    91    47    86    1
    92    48    88    1
    93    48    87    1
