@<TRIPOS>MOLECULE
/tmp/ewbell/vina_1ec0_1ec0_lig/vina/vina1.pdbqt
 56 61 0 0 0
SMALL
GASTEIGER

@<TRIPOS>ATOM
      1  C15        7.4490   26.8170    4.5110 C.3   203  INH203      0.1880
      2  C14        7.5030   25.4620    3.8640 C.3   203  INH203      0.2440
      3  O1         6.2740   25.1680    3.1280 O.3   203  INH203     -0.3690
      4  C13        6.1190   23.7830    2.7670 C.3   203  INH203      0.2100
      5  C7         4.6580   23.3340    2.7230 C.ar  203  INH203      0.0040
      6  C12        4.0710   22.6990    3.8800 C.ar  203  INH203      0.0120
      7  C11        2.7150   22.2610    3.8620 C.ar  203  INH203      0.0010
      8  C10        1.9120   22.4460    2.6800 C.ar  203  INH203      0.0030
      9  C9         2.4790   23.0740    1.5170 C.ar  203  INH203      0.0430
     10  C8         3.8490   23.5200    1.5340 C.ar  203  INH203      0.1240
     11  F2         4.3470   24.0870    0.4600 F     203  INH203     -0.2050
     12  C20        8.6460   25.6180    2.9410 C.2   203  INH203      0.2500
     13  N2         9.7550   24.8890    3.2060 N.am  203  INH203     -0.3480
     14  H20       10.5470   24.9730    2.6030 H     203  INH203      0.1630
     15  O6         8.5460   26.3810    1.9790 O.2   203  INH203     -0.2710
     16  C21        9.8220   24.0000    4.3290 C.3   203  INH203      0.1470
     17  C27        9.9530   24.6400    5.7200 C.3   203  INH203      0.1490
     18  C29       10.6250   23.5520    6.5950 C.3   203  INH203      0.0730
     19  C23       11.5180   22.8750    5.6070 C.ar  203  INH203     -0.0470
     20  C22       11.0510   23.1350    4.2830 C.ar  203  INH203     -0.0270
     21  C28       12.6810   22.0720    5.8460 C.ar  203  INH203      0.0080
     22  C24       11.7570   22.5860    3.1420 C.ar  203  INH203      0.0100
     23  C25       12.9320   21.7760    3.3620 C.ar  203  INH203      0.0010
     24  C26       13.3850   21.5240    4.7100 C.ar  203  INH203      0.0010
     25  O7        10.7970   25.7810    5.5910 O.3   203  INH203     -0.3930
     26  H26       11.4190   25.6360    4.8880 H     203  INH203      0.2100
     27  O5         8.4130   27.7420    3.9370 O.3   203  INH203     -0.3900
     28  H19        8.6060   28.4280    4.5640 H     203  INH203      0.2100
     29  C16        7.6280   26.7440    5.9780 C.3   203  INH203      0.1880
     30  O4         8.4630   27.8670    6.2950 O.3   203  INH203     -0.3900
     31  H18        9.3170   27.7500    5.8950 H     203  INH203      0.2100
     32  C17        6.2500   26.7570    6.6890 C.3   203  INH203      0.2440
     33  O3         6.3220   26.3490    8.0830 O.3   203  INH203     -0.3690
     34  C19        7.4090   25.4740    8.3950 C.3   203  INH203      0.2100
     35  C1         8.5990   26.1810    9.0310 C.ar  203  INH203      0.0040
     36  C6         8.5330   27.5070    9.6260 C.ar  203  INH203      0.1240
     37  C5         9.6930   28.1230   10.2220 C.ar  203  INH203      0.0430
     38  F1         7.4290   28.2140    9.6620 F     203  INH203     -0.2050
     39  C4        10.9420   27.4190   10.2310 C.ar  203  INH203      0.0030
     40  C3        11.0280   26.1020    9.6470 C.ar  203  INH203      0.0010
     41  C2         9.8780   25.5070    9.0640 C.ar  203  INH203      0.0120
     42  C18        5.5170   28.0780    6.6460 C.2   203  INH203      0.2500
     43  N1         4.3020   28.0660    5.9890 N.am  203  INH203     -0.3480
     44  H15        3.7920   28.9260    5.9500 H     203  INH203      0.1630
     45  O2         5.9620   29.1000    7.1780 O.2   203  INH203     -0.2710
     46  C30        3.7060   26.9020    5.3530 C.3   203  INH203      0.1470
     47  C36        3.3350   27.0440    3.8690 C.3   203  INH203      0.1490
     48  C38        2.2220   25.9820    3.6210 C.3   203  INH203      0.0730
     49  C32        1.5180   25.9730    4.9370 C.ar  203  INH203     -0.0470
     50  C31        2.3760   26.5070    5.9440 C.ar  203  INH203     -0.0270
     51  C37        0.1870   25.5220    5.2420 C.ar  203  INH203      0.0080
     52  C33        1.9160   26.6040    7.3040 C.ar  203  INH203      0.0100
     53  C34        0.5790   26.1520    7.6220 C.ar  203  INH203      0.0010
     54  C35       -0.2670   25.6190    6.5990 C.ar  203  INH203      0.0010
     55  O8         2.8890   28.3940    3.6600 O.3   203  INH203     -0.3930
     56  H35        2.3510   28.6670    4.3950 H     203  INH203      0.2100
@<TRIPOS>BOND
     1    11    10    1
     2     9    10   ar
     3     9     8   ar
     4    10     5   ar
     5    15    12    2
     6    14    13    1
     7     8     7   ar
     8     5     4    1
     9     5     6   ar
    10     4     3    1
    11    12    13   am
    12    12     2    1
    13     3     2    1
    14    22    23   ar
    15    22    20   ar
    16    13    16    1
    17    23    24   ar
    18    48    47    1
    19    48    49    1
    20    55    47    1
    21    55    56    1
    22     7     6   ar
    23     2     1    1
    24    47    46    1
    25    27     1    1
    26    27    28    1
    27    20    16    1
    28    20    19   ar
    29    16    17    1
    30     1    29    1
    31    24    21   ar
    32    26    25    1
    33    49    51   ar
    34    49    50   ar
    35    51    54   ar
    36    46    50    1
    37    46    43    1
    38    25    17    1
    39    19    21   ar
    40    19    18    1
    41    17    18    1
    42    31    30    1
    43    50    52   ar
    44    44    43    1
    45    29    30    1
    46    29    32    1
    47    43    42   am
    48    54    53   ar
    49    42    32    1
    50    42    45    2
    51    32    33    1
    52    52    53   ar
    53    33    34    1
    54    34    35    1
    55    35    41   ar
    56    35    36   ar
    57    41    40   ar
    58    36    38    1
    59    36    37   ar
    60    40    39   ar
    61    37    39   ar
