@<TRIPOS>MOLECULE
/tmp/ewbell/vina_1ec0_1ec0_lig/vina/vina3.pdbqt
 56 61 0 0 0
SMALL
GASTEIGER

@<TRIPOS>ATOM
      1  C15        4.7530   26.0440    5.8230 C.3   203  INH203      0.1880
      2  C14        3.3260   26.3590    5.4730 C.3   203  INH203      0.2440
      3  O1         2.6650   25.2200    4.8370 O.3   203  INH203     -0.3690
      4  C13        3.5630   24.1730    4.4220 C.3   203  INH203      0.2100
      5  C7         2.8380   22.9100    3.9570 C.ar  203  INH203      0.0040
      6  C12        1.4590   22.9930    3.5320 C.ar  203  INH203      0.0120
      7  C11        0.7560   21.8300    3.1040 C.ar  203  INH203      0.0010
      8  C10        1.4180   20.5500    3.0930 C.ar  203  INH203      0.0030
      9  C9         2.7890   20.4470    3.5140 C.ar  203  INH203      0.0430
     10  C8         3.5030   21.6210    3.9450 C.ar  203  INH203      0.1240
     11  F2         4.7520   21.5030    4.3290 F     203  INH203     -0.2050
     12  C20        2.7450   26.6290    6.8050 C.2   203  INH203      0.2500
     13  N2         2.4790   27.9210    7.1090 N.am  203  INH203     -0.3480
     14  H20        2.0880   28.1380    8.0030 H     203  INH203      0.1630
     15  O6         2.5200   25.6890    7.5680 O.2   203  INH203     -0.2710
     16  C21        2.7430   28.9830    6.1840 C.3   203  INH203      0.1470
     17  C27        3.7140   30.0820    6.6400 C.3   203  INH203      0.1490
     18  C29        3.3260   31.3270    5.8030 C.3   203  INH203      0.0730
     19  C23        1.8480   31.1530    5.6650 C.ar  203  INH203     -0.0470
     20  C22        1.5060   29.7850    5.8870 C.ar  203  INH203     -0.0270
     21  C28        0.8510   32.1350    5.3630 C.ar  203  INH203      0.0080
     22  C24        0.1210   29.3610    5.8110 C.ar  203  INH203      0.0100
     23  C25       -0.9000   30.3360    5.5100 C.ar  203  INH203      0.0010
     24  C26       -0.5300   31.7150    5.2870 C.ar  203  INH203      0.0010
     25  O7         3.4850   30.3100    8.0270 O.3   203  INH203     -0.3930
     26  H26        3.8780   29.6090    8.5320 H     203  INH203      0.2100
     27  O5         4.9830   26.0490    7.2600 O.3   203  INH203     -0.3900
     28  H19        5.0340   26.9450    7.5690 H     203  INH203      0.2100
     29  C16        5.7080   26.9540    5.1540 C.3   203  INH203      0.1880
     30  O4         6.0410   27.9270    6.1550 O.3   203  INH203     -0.3900
     31  H18        5.9950   27.5260    7.0150 H     203  INH203      0.2100
     32  C17        6.9240   26.1570    4.6150 C.3   203  INH203      0.2440
     33  O3         6.6290   25.4190    3.3960 O.3   203  INH203     -0.3690
     34  C19        7.0620   24.0570    3.4020 C.3   203  INH203      0.2100
     35  C1         8.5560   23.8890    3.1600 C.ar  203  INH203      0.0040
     36  C6         9.2820   24.5420    2.0810 C.ar  203  INH203      0.1240
     37  C5        10.7000   24.3510    1.9050 C.ar  203  INH203      0.0430
     38  F1         8.7010   25.3380    1.2150 F     203  INH203     -0.2050
     39  C4        11.4180   23.5000    2.8090 C.ar  203  INH203      0.0030
     40  C3        10.7170   22.8450    3.8860 C.ar  203  INH203      0.0010
     41  C2         9.3190   23.0410    4.0480 C.ar  203  INH203      0.0120
     42  C18        8.1650   26.9780    4.3530 C.2   203  INH203      0.2500
     43  N1         9.1230   26.9450    5.3470 N.am  203  INH203     -0.3480
     44  H15        9.9590   27.4750    5.1990 H     203  INH203      0.1630
     45  O2         8.3260   27.6220    3.3120 O.2   203  INH203     -0.2710
     46  C30        9.0130   26.2000    6.5920 C.3   203  INH203      0.1470
     47  C36        8.4550   26.9630    7.8030 C.3   203  INH203      0.1490
     48  C38        9.0000   26.2060    9.0510 C.3   203  INH203      0.0730
     49  C32       10.3300   25.7380    8.5610 C.ar  203  INH203     -0.0470
     50  C31       10.3410   25.7340    7.1340 C.ar  203  INH203     -0.0270
     51  C37       11.4800   25.3360    9.3240 C.ar  203  INH203      0.0080
     52  C33       11.5240   25.3210    6.4240 C.ar  203  INH203      0.0100
     53  C34       12.6860   24.9140    7.1830 C.ar  203  INH203      0.0010
     54  C35       12.6560   24.9240    8.6140 C.ar  203  INH203      0.0010
     55  O8         8.9200   28.3200    7.7140 O.3   203  INH203     -0.3930
     56  H35        9.1280   28.6410    8.5840 H     203  INH203      0.2100
@<TRIPOS>BOND
     1    38    36    1
     2    37    36   ar
     3    37    39   ar
     4    36    35   ar
     5    39    40   ar
     6     8     7   ar
     7     8     9   ar
     8     7     6   ar
     9    35    34    1
    10    35    41   ar
    11    45    42    2
    12    33    34    1
    13    33    32    1
    14     9    10   ar
    15     6     5   ar
    16    40    41   ar
    17    10     5   ar
    18    10    11    1
    19     5     4    1
    20    42    32    1
    21    42    43   am
    22     4     3    1
    23    32    29    1
    24     3     2    1
    25    29     1    1
    26    29    30    1
    27    44    43    1
    28    24    21   ar
    29    24    23   ar
    30    43    46    1
    31    21    19   ar
    32     2     1    1
    33     2    12    1
    34    23    22   ar
    35    19    18    1
    36    19    20   ar
    37    18    17    1
    38    22    20   ar
    39     1    27    1
    40    20    16    1
    41    30    31    1
    42    16    17    1
    43    16    13    1
    44    52    50   ar
    45    52    53   ar
    46    46    50    1
    47    46    47    1
    48    17    25    1
    49    12    13   am
    50    12    15    2
    51    13    14    1
    52    50    49   ar
    53    53    54   ar
    54    27    28    1
    55    55    47    1
    56    55    56    1
    57    47    48    1
    58    25    26    1
    59    49    48    1
    60    49    51   ar
    61    54    51   ar
