@<TRIPOS>MOLECULE
/tmp/ewbell/vina_1ec0_1ec0_lig/vina/vina4.pdbqt
 56 61 0 0 0
SMALL
GASTEIGER

@<TRIPOS>ATOM
      1  C15        7.5900   26.8670    4.5060 C.3   203  INH203      0.1880
      2  C14        7.6250   25.4860    3.9150 C.3   203  INH203      0.2440
      3  O1         6.4110   25.1980    3.1500 O.3   203  INH203     -0.3690
      4  C13        6.0950   23.7960    3.0530 C.3   203  INH203      0.2100
      5  C7         4.6040   23.5300    2.8450 C.ar  203  INH203      0.0040
      6  C12        3.8430   24.3810    1.9590 C.ar  203  INH203      0.0120
      7  C11        2.4500   24.1620    1.7550 C.ar  203  INH203      0.0010
      8  C10        1.7820   23.0840    2.4370 C.ar  203  INH203      0.0030
      9  C9         2.5210   22.2270    3.3250 C.ar  203  INH203      0.0430
     10  C8         3.9300   22.4450    3.5310 C.ar  203  INH203      0.1240
     11  F2         4.5840   21.6530    4.3490 F     203  INH203     -0.2050
     12  C20        8.8000   25.5730    3.0240 C.2   203  INH203      0.2500
     13  N2         9.8810   24.8290    3.3580 N.am  203  INH203     -0.3480
     14  H20       10.6940   24.8670    2.7780 H     203  INH203      0.1630
     15  O6         8.7520   26.2950    2.0280 O.2   203  INH203     -0.2710
     16  C21        9.8890   23.9900    4.5200 C.3   203  INH203      0.1470
     17  C27       10.0030   24.6860    5.8840 C.3   203  INH203      0.1490
     18  C29       10.6150   23.6170    6.8250 C.3   203  INH203      0.0730
     19  C23       11.5110   22.8680    5.8930 C.ar  203  INH203     -0.0470
     20  C22       11.0880   23.0840    4.5460 C.ar  203  INH203     -0.0270
     21  C28       12.6400   22.0410    6.2000 C.ar  203  INH203      0.0080
     22  C24       11.8070   22.4630    3.4510 C.ar  203  INH203      0.0100
     23  C25       12.9480   21.6270    3.7390 C.ar  203  INH203      0.0010
     24  C26       13.3560   21.4200    5.1090 C.ar  203  INH203      0.0010
     25  O7        10.8870   25.7920    5.7300 O.3   203  INH203     -0.3930
     26  H26       11.7430   25.5630    6.0710 H     203  INH203      0.2100
     27  O5         8.8120   27.6110    4.2440 O.3   203  INH203     -0.3900
     28  H19        8.6000   28.5240    4.0930 H     203  INH203      0.2100
     29  C16        7.3090   26.8470    5.9580 C.3   203  INH203      0.1880
     30  O4         8.4460   27.4900    6.5540 O.3   203  INH203     -0.3900
     31  H18        9.0440   26.8310    6.8860 H     203  INH203      0.2100
     32  C17        5.9570   27.5470    6.2540 C.3   203  INH203      0.2440
     33  O3         4.8090   26.6720    6.0730 O.3   203  INH203     -0.3690
     34  C19        4.2380   26.6990    4.7630 C.3   203  INH203      0.2100
     35  C1         2.7400   26.4240    4.7430 C.ar  203  INH203      0.0040
     36  C6         2.1160   25.2770    5.3840 C.ar  203  INH203      0.1240
     37  C5         0.6890   25.0730    5.3390 C.ar  203  INH203      0.0430
     38  F1         2.8020   24.3720    6.0410 F     203  INH203     -0.2050
     39  C4        -0.1390   26.0160    4.6460 C.ar  203  INH203      0.0030
     40  C3         0.4600   27.1610    4.0040 C.ar  203  INH203      0.0010
     41  C2         1.8660   27.3510    4.0570 C.ar  203  INH203      0.0120
     42  C18        5.8400   28.1620    7.6300 C.2   203  INH203      0.2500
     43  N1         4.7790   29.0270    7.8080 N.am  203  INH203     -0.3480
     44  H15        4.6730   29.4460    8.7110 H     203  INH203      0.1630
     45  O2         6.6270   27.8960    8.5440 O.2   203  INH203     -0.2710
     46  C30        3.8040   29.3780    6.7880 C.3   203  INH203      0.1470
     47  C36        3.6220   30.8750    6.4960 C.3   203  INH203      0.1490
     48  C38        2.1910   31.0040    5.8920 C.3   203  INH203      0.0730
     49  C32        1.4590   29.9270    6.6200 C.ar  203  INH203     -0.0470
     50  C31        2.3920   28.9820    7.1430 C.ar  203  INH203     -0.0270
     51  C37        0.0430   29.7780    6.8210 C.ar  203  INH203      0.0080
     52  C33        1.9230   27.8460    7.8920 C.ar  203  INH203      0.0100
     53  C34        0.5000   27.6870    8.0990 C.ar  203  INH203      0.0010
     54  C35       -0.4210   28.6450    7.5680 C.ar  203  INH203      0.0010
     55  O8         3.7800   31.5820    7.7370 O.3   203  INH203     -0.3930
     56  H35        3.6550   32.5130    7.5900 H     203  INH203      0.2100
@<TRIPOS>BOND
     1     7     6   ar
     2     7     8   ar
     3     6     5   ar
     4    15    12    2
     5     8     9   ar
     6    14    13    1
     7     5     4    1
     8     5    10   ar
     9    12    13   am
    10    12     2    1
    11     4     3    1
    12     3     2    1
    13     9    10   ar
    14    13    16    1
    15    22    23   ar
    16    22    20   ar
    17    10    11    1
    18    23    24   ar
    19     2     1    1
    20    40    41   ar
    21    40    39   ar
    22    41    35   ar
    23    28    27    1
    24    27     1    1
    25     1    29    1
    26    16    20    1
    27    16    17    1
    28    20    19   ar
    29    39    37   ar
    30    35    34    1
    31    35    36   ar
    32    34    33    1
    33    24    21   ar
    34    37    36   ar
    35    36    38    1
    36    25    17    1
    37    25    26    1
    38    17    18    1
    39    48    47    1
    40    48    49    1
    41    19    21   ar
    42    19    18    1
    43    29    32    1
    44    29    30    1
    45    33    32    1
    46    32    42    1
    47    47    46    1
    48    47    55    1
    49    30    31    1
    50    49    51   ar
    51    49    50   ar
    52    46    50    1
    53    46    43    1
    54    51    54   ar
    55    50    52   ar
    56    54    53   ar
    57    56    55    1
    58    42    43   am
    59    42    45    2
    60    43    44    1
    61    52    53   ar
