@<TRIPOS>MOLECULE
/tmp/ewbell/vina_1ec0_1ec0_lig/vina/vina5.pdbqt
 56 61 0 0 0
SMALL
GASTEIGER

@<TRIPOS>ATOM
      1  C15        6.5280   24.3330    2.8500 C.3   203  INH203      0.1880
      2  C14        5.1070   23.8480    2.8340 C.3   203  INH203      0.2440
      3  O1         4.8560   22.8810    3.9030 O.3   203  INH203     -0.3690
      4  C13        3.4670   22.5490    4.0840 C.3   203  INH203      0.2100
      5  C7         3.1220   21.1350    3.6150 C.ar  203  INH203      0.0040
      6  C12        2.3910   20.9500    2.3830 C.ar  203  INH203      0.0120
      7  C11        2.0470   19.6440    1.9280 C.ar  203  INH203      0.0010
      8  C10        2.4250   18.4880    2.7000 C.ar  203  INH203      0.0030
      9  C9         3.1510   18.6520    3.9300 C.ar  203  INH203      0.0430
     10  C8         3.5020   19.9710    4.3910 C.ar  203  INH203      0.1240
     11  F2         4.1620   20.0970    5.5190 F     203  INH203     -0.2050
     12  C20        4.3620   25.1020    3.0730 C.2   203  INH203      0.2500
     13  N2         3.4000   25.4250    2.1770 N.am  203  INH203     -0.3480
     14  H20        2.8780   26.2680    2.3070 H     203  INH203      0.1630
     15  O6         4.6300   25.7860    4.0610 O.2   203  INH203     -0.2710
     16  C21        3.1090   24.5910    1.0480 C.3   203  INH203      0.1470
     17  C27        3.4000   25.1720   -0.3440 C.3   203  INH203      0.1490
     18  C29        2.4530   24.4050   -1.3000 C.3   203  INH203      0.0730
     19  C23        1.2590   24.1780   -0.4300 C.ar  203  INH203     -0.0470
     20  C22        1.6410   24.2860    0.9420 C.ar  203  INH203     -0.0270
     21  C28       -0.0920   23.8930   -0.8110 C.ar  203  INH203      0.0080
     22  C24        0.6520   24.1080    1.9870 C.ar  203  INH203      0.0100
     23  C25       -0.7160   23.8220    1.6240 C.ar  203  INH203      0.0010
     24  C26       -1.0790   23.7160    0.2300 C.ar  203  INH203      0.0010
     25  O7         3.0720   26.5580   -0.3080 O.3   203  INH203     -0.3930
     26  H26        3.6610   27.0370   -0.8790 H     203  INH203      0.2100
     27  O5         6.8140   25.2440    1.7520 O.3   203  INH203     -0.3900
     28  H19        7.6790   25.0600    1.4060 H     203  INH203      0.2100
     29  C16        7.5000   23.2180    2.8500 C.3   203  INH203      0.1880
     30  O4         7.8900   23.0790    1.4760 O.3   203  INH203     -0.3900
     31  H18        8.2730   23.8930    1.1710 H     203  INH203      0.2100
     32  C17        8.6750   23.5280    3.8140 C.3   203  INH203      0.2440
     33  O3         9.6830   22.4790    3.8440 O.3   203  INH203     -0.3690
     34  C19       10.9810   22.8850    3.4050 C.3   203  INH203      0.2100
     35  C1        12.1190   22.1710    4.1220 C.ar  203  INH203      0.0040
     36  C6        12.0690   21.7560    5.5150 C.ar  203  INH203      0.1240
     37  C5        13.1770   21.0760    6.1390 C.ar  203  INH203      0.0430
     38  F1        11.0240   21.9680    6.2810 F     203  INH203     -0.2050
     39  C4        14.3580   20.7990    5.3750 C.ar  203  INH203      0.0030
     40  C3        14.4280   21.2010    3.9910 C.ar  203  INH203      0.0010
     41  C2        13.3300   21.8700    3.3890 C.ar  203  INH203      0.0120
     42  C18        9.3930   24.8320    3.5530 C.2   203  INH203      0.2500
     43  N1         9.5960   25.6330    4.6600 N.am  203  INH203     -0.3480
     44  H15       10.0740   26.5010    4.5180 H     203  INH203      0.1630
     45  O2         9.7910   25.1560    2.4300 O.2   203  INH203     -0.2710
     46  C30        9.1710   25.3150    6.0130 C.3   203  INH203      0.1470
     47  C36        8.1600   26.2740    6.6600 C.3   203  INH203      0.1490
     48  C38        8.3500   26.0930    8.1970 C.3   203  INH203      0.0730
     49  C32        9.8120   25.8070    8.2880 C.ar  203  INH203     -0.0470
     50  C31       10.2910   25.3560    7.0220 C.ar  203  INH203     -0.0270
     51  C37       10.6850   25.9360    9.4220 C.ar  203  INH203      0.0080
     52  C33       11.6810   25.0180    6.8580 C.ar  203  INH203      0.0100
     53  C34       12.5680   25.1430    7.9930 C.ar  203  INH203      0.0010
     54  C35       12.0690   25.5980    9.2550 C.ar  203  INH203      0.0010
     55  O8         8.4670   27.6020    6.2030 O.3   203  INH203     -0.3930
     56  H35        9.0090   27.5510    5.4240 H     203  INH203      0.2100
@<TRIPOS>BOND
     1    18    19    1
     2    18    17    1
     3    26    25    1
     4    21    19   ar
     5    21    24   ar
     6    19    20   ar
     7    17    25    1
     8    17    16    1
     9    24    23   ar
    10    20    16    1
    11    20    22   ar
    12    16    13    1
    13    31    30    1
    14    28    27    1
    15    30    29    1
    16    23    22   ar
    17    27     1    1
    18     7     6   ar
    19     7     8   ar
    20    13    14    1
    21    13    12   am
    22     6     5   ar
    23    45    42    2
    24     8     9   ar
    25     2     1    1
    26     2    12    1
    27     2     3    1
    28    29     1    1
    29    29    32    1
    30    12    15    2
    31    41    40   ar
    32    41    35   ar
    33    34    33    1
    34    34    35    1
    35    42    32    1
    36    42    43   am
    37     5     4    1
    38     5    10   ar
    39    32    33    1
    40     3     4    1
    41     9    10   ar
    42    40    39   ar
    43    35    36   ar
    44    10    11    1
    45    44    43    1
    46    43    46    1
    47    39    37   ar
    48    56    55    1
    49    36    37   ar
    50    36    38    1
    51    46    47    1
    52    46    50    1
    53    55    47    1
    54    47    48    1
    55    52    50   ar
    56    52    53   ar
    57    50    49   ar
    58    53    54   ar
    59    48    49    1
    60    49    51   ar
    61    54    51   ar
