@<TRIPOS>MOLECULE
/tmp/ewbell/vina_1ec0_1ec0_lig/vina/vina2.pdbqt
 56 61 0 0 0
SMALL
GASTEIGER

@<TRIPOS>ATOM
      1  C15        5.9530   26.7340    5.1530 C.3   203  INH203      0.1880
      2  C14        7.1410   25.9590    4.6600 C.3   203  INH203      0.2440
      3  O1         6.8740   25.3330    3.3650 O.3   203  INH203     -0.3690
      4  C13        7.2560   23.9460    3.2910 C.3   203  INH203      0.2100
      5  C7         8.7590   23.7480    3.0820 C.ar  203  INH203      0.0040
      6  C12        9.4590   22.7450    3.8500 C.ar  203  INH203      0.0120
      7  C11       10.8610   22.5450    3.6830 C.ar  203  INH203      0.0010
      8  C10       11.5960   23.3500    2.7420 C.ar  203  INH203      0.0030
      9  C9        10.9170   24.3550    1.9700 C.ar  203  INH203      0.0430
     10  C8         9.5000   24.5570    2.1350 C.ar  203  INH203      0.1240
     11  F2         8.9010   25.4830    1.4230 F     203  INH203     -0.2050
     12  C20        8.1580   27.0230    4.5300 C.2   203  INH203      0.2500
     13  N2         9.0470   27.1490    5.5440 N.am  203  INH203     -0.3480
     14  H20        9.7470   27.8610    5.4890 H     203  INH203      0.1630
     15  O6         8.1670   27.7320    3.5240 O.2   203  INH203     -0.2710
     16  C21        9.0110   26.2910    6.6910 C.3   203  INH203      0.1470
     17  C27        8.7150   26.9490    8.0470 C.3   203  INH203      0.1490
     18  C29        9.3480   25.9980    9.0950 C.3   203  INH203      0.0730
     19  C23       10.5420   25.4850    8.3590 C.ar  203  INH203     -0.0470
     20  C22       10.3460   25.6540    6.9540 C.ar  203  INH203     -0.0270
     21  C28       11.7400   24.8990    8.8830 C.ar  203  INH203      0.0080
     22  C24       11.3740   25.2320    6.0220 C.ar  203  INH203      0.0100
     23  C25       12.5900   24.6420    6.5300 C.ar  203  INH203      0.0010
     24  C26       12.7650   24.4780    7.9550 C.ar  203  INH203      0.0010
     25  O7         9.3590   28.2190    8.0580 O.3   203  INH203     -0.3930
     26  H26        9.7130   28.3860    8.9240 H     203  INH203      0.2100
     27  O5         6.3390   27.9030    5.9280 O.3   203  INH203     -0.3900
     28  H19        6.7860   28.5230    5.3650 H     203  INH203      0.2100
     29  C16        5.0210   25.8930    5.9350 C.3   203  INH203      0.1880
     30  O4         5.4220   26.0820    7.2990 O.3   203  INH203     -0.3900
     31  H18        6.0420   26.8000    7.3510 H     203  INH203      0.2100
     32  C17        3.5530   26.3020    5.6430 C.3   203  INH203      0.2440
     33  O3         2.8050   25.2790    4.9300 O.3   203  INH203     -0.3690
     34  C19        3.6110   24.3200    4.2410 C.3   203  INH203      0.2100
     35  C1         2.8680   23.0390    3.8860 C.ar  203  INH203      0.0040
     36  C6         3.4700   21.7150    3.9160 C.ar  203  INH203      0.1240
     37  C5         2.7140   20.5350    3.5760 C.ar  203  INH203      0.0430
     38  F1         4.7220   21.5140    4.2550 F     203  INH203     -0.2050
     39  C4         1.3360   20.6620    3.1990 C.ar  203  INH203      0.0030
     40  C3         0.7190   21.9660    3.1640 C.ar  203  INH203      0.0010
     41  C2         1.4760   23.1200    3.5010 C.ar  203  INH203      0.0120
     42  C18        2.7410   26.6880    6.8580 C.2   203  INH203      0.2500
     43  N1         2.4560   28.0340    6.9820 N.am  203  INH203     -0.3480
     44  H15        1.9140   28.3180    7.7740 H     203  INH203      0.1630
     45  O2         2.3380   25.8570    7.6770 O.2   203  INH203     -0.2710
     46  C30        2.8800   29.0690    6.0530 C.3   203  INH203      0.1470
     47  C36        3.7930   30.1680    6.6180 C.3   203  INH203      0.1490
     48  C38        3.5910   31.3930    5.6770 C.3   203  INH203      0.0730
     49  C32        2.1570   31.2420    5.2920 C.ar  203  INH203     -0.0470
     50  C31        1.7410   29.8950    5.5100 C.ar  203  INH203     -0.0270
     51  C37        1.2540   32.2360    4.7770 C.ar  203  INH203      0.0080
     52  C33        0.3880   29.5020    5.2140 C.ar  203  INH203      0.0100
     53  C34       -0.5280   30.4930    4.6950 C.ar  203  INH203      0.0010
     54  C35       -0.0930   31.8400    4.4820 C.ar  203  INH203      0.0010
     55  O8         3.3840   30.4190    7.9730 O.3   203  INH203     -0.3930
     56  H35        2.6560   29.8490    8.1940 H     203  INH203      0.2100
@<TRIPOS>BOND
     1    11    10    1
     2     9    10   ar
     3     9     8   ar
     4    10     5   ar
     5     8     7   ar
     6     5     4    1
     7     5     6   ar
     8    40    39   ar
     9    40    41   ar
    10    39    37   ar
    11     4     3    1
    12     3     2    1
    13    41    35   ar
    14    15    12    2
    15    37    36   ar
    16     7     6   ar
    17    35    36   ar
    18    35    34    1
    19    36    38    1
    20    34    33    1
    21    54    53   ar
    22    54    51   ar
    23    12     2    1
    24    12    13   am
    25     2     1    1
    26    53    52   ar
    27    51    49   ar
    28    33    32    1
    29     1    27    1
    30     1    29    1
    31    52    50   ar
    32    49    50   ar
    33    49    48    1
    34    28    27    1
    35    14    13    1
    36    50    46    1
    37    13    16    1
    38    32    29    1
    39    32    42    1
    40    48    47    1
    41    29    30    1
    42    22    23   ar
    43    22    20   ar
    44    46    47    1
    45    46    43    1
    46    23    24   ar
    47    47    55    1
    48    16    20    1
    49    16    17    1
    50    42    43   am
    51    42    45    2
    52    20    19   ar
    53    43    44    1
    54    30    31    1
    55    24    21   ar
    56    55    56    1
    57    17    25    1
    58    17    18    1
    59    25    26    1
    60    19    21   ar
    61    19    18    1
