@<TRIPOS>MOLECULE
./ligand/2e2p_lig.pdb
 39 41 0 0 0
SMALL
GASTEIGER

@<TRIPOS>ATOM
      1  C1         6.6750   -8.8270   26.3900 C.3   600  INH600      0.0836
      2  C2         5.7130   -8.8750   25.2120 C.3   600  INH600      0.1133
      3  P1         6.6670   -5.0820   28.7580 P.3   600  INH600      0.5373
      4  O1         7.3980   -6.5140   28.7590 O.3   600  INH600     -0.2261
      5  O2         7.3750   -4.2660   29.7990 O.3   600  INH600     -0.1143
      6  O3         9.2910   -6.2070   27.1310 O.2   600  INH600     -0.5170
      7  O4         6.8300   -4.5560   27.3790 O.3   600  INH600     -0.1143
      8  O5         8.9700   -8.4390   28.3270 O.3   600  INH600     -0.4370
      9  O6         5.1520   -5.3240   29.1150 O.2   600  INH600     -0.2221
     10  O7         7.3590   -7.5360   26.4880 O.3   600  INH600     -0.3245
     11  P2         8.3280   -7.2220   27.7080 P.3   600  INH600      0.2224
     12  O8         6.3840   -9.3200   24.0110 O.3   600  INH600     -0.3456
     13  C3         4.4580   -9.7750   25.3390 C.3   600  INH600      0.1135
     14  O9         3.3240   -8.9820   24.9460 O.3   600  INH600     -0.3864
     15  H1         2.7580   -9.4960   24.3830 H     600  INH600      0.2100
     16  C4         4.7480  -10.9770   24.4310 C.3   600  INH600      0.1285
     17  O10        3.6140  -11.4300   23.6690 O.3   600  INH600     -0.3847
     18  H2         3.4930  -10.8700   22.8820 H     600  INH600      0.2101
     19  C5         5.8340  -10.5090   23.4760 C.3   600  INH600      0.1665
     20  N1         6.8770  -11.5650   23.2290 N.ar  600  INH600     -0.2877
     21  C6         7.7410  -12.1380   24.1060 C.ar  600  INH600      0.0999
     22  N2         8.5360  -13.0580   23.5230 N.ar  600  INH600     -0.2346
     23  C7         8.1390  -13.0560   22.2210 C.ar  600  INH600      0.1287
     24  C8         8.5990  -13.8130   21.0660 C.3   600  INH600      0.2004
     25  N3         9.5290  -14.7100   21.0600 N.3   600  INH600     -0.2985
     26  N4         7.9260  -13.5100   19.8890 N.2   600  INH600     -0.2420
     27  C9         6.9100  -12.5620   19.8030 C.2   600  INH600      0.1049
     28  N5         6.4810  -11.8590   20.8550 N.pl3 600  INH600     -0.1840
     29  C10        7.1200  -12.1290   22.0220 C.ar  600  INH600      0.1528
     30  H3         7.4280   -9.6190   26.2660 H     600  INH600      0.0591
     31  H4         6.1100   -9.0010   27.3170 H     600  INH600      0.0591
     32  H5         5.3620   -7.8440   25.0590 H     600  INH600      0.0647
     33  H6         4.3170  -10.1190   26.3740 H     600  INH600      0.0647
     34  H7         5.1140  -11.8140   25.0440 H     600  INH600      0.0665
     35  H8         5.3680  -10.2720   22.5080 H     600  INH600      0.0866
     36  H9         7.7870  -11.8830   25.1640 H     600  INH600      0.1030
     37  H10       10.0000  -14.9700   21.9390 H     600  INH600      0.1209
     38  H11        9.8000  -15.1650   20.1770 H     600  INH600      0.1209
     39  H12        6.4460  -12.3860   18.8390 H     600  INH600      0.1015
@<TRIPOS>BOND
     1     1    31    1
     2     1    30    1
     3     1    10    1
     4     1     2    1
     5     2    32    1
     6     2    13    1
     7     2    12    1
     8     3     4    1
     9     3     9    2
    10     3     7    1
    11     3     5    1
    12     4    11    1
    13     6    11    2
    14     8    11    1
    15    10    11    1
    16    12    19    1
    17    13    16    1
    18    13    33    1
    19    13    14    1
    20    14    15    1
    21    16    19    1
    22    16    34    1
    23    16    17    1
    24    17    18    1
    25    19    35    1
    26    19    20    1
    27    20    29   ar
    28    20    21   ar
    29    21    36    1
    30    21    22   ar
    31    22    23   ar
    32    23    29   ar
    33    23    24    1
    34    24    26    1
    35    24    25    1
    36    25    38    1
    37    25    37    1
    38    26    27    2
    39    27    39    1
    40    27    28    1
    41    28    29    1
