@<TRIPOS>MOLECULE
/tmp/ewbell/vina_2e2p_2e2p_lig/vina/vina2.pdbqt
 37 39 0 0 0
SMALL
GASTEIGER

@<TRIPOS>ATOM
      1  C2         1.6490    3.1580   26.2490 C.3   600  INH600      0.1800
      2  O8         2.9710    3.0320   25.6750 O.3   600  INH600     -0.3530
      3  C3         1.1370    1.7060   26.4220 C.3   600  INH600      0.1820
      4  C4         2.3980    0.8360   26.3460 C.3   600  INH600      0.1980
      5  C5         3.4410    1.6970   25.6520 C.3   600  INH600      0.2620
      6  N1         4.8060    1.5580   26.2700 N.3   600  INH600     -0.2970
      7  C10        5.6740    2.5830   26.4420 C.3   600  INH600      0.1380
      8  C7         6.8120    2.0380   27.0290 C.2   600  INH600      0.1070
      9  N5         5.4800    3.8800   26.0900 N.3   600  INH600     -0.3370
     10  N2         6.6510    0.7020   27.2360 N.pl3 600  INH600     -0.3490
     11  C8         7.9160    2.9390   27.3250 C.2   600  INH600      0.6860
     12  C6         5.4160    0.4470   26.7580 C.3   600  INH600      0.1870
     13  H2         7.3100    0.0470   27.6550 H     600  INH600      0.1660
     14  N4         7.6840    4.2570   26.9550 N.pl3 600  INH600     -0.3520
     15  N3         9.0440    2.6140   27.8660 N.pl3 600  INH600     -0.0950
     16  C9         6.5020    4.6960   26.3640 C.3   600  INH600      0.1790
     17  H4         8.4200    4.9430   27.1260 H     600  INH600      0.1620
     18  H11        9.7490    3.3390   28.0630 H     600  INH600      0.2600
     19  H10        9.2390    1.6300   28.1010 H     600  INH600      0.2600
     20  H          4.6500    4.1940   25.6650 H     600  INH600      0.1680
     21  O10        2.2300   -0.3870   25.6060 O.3   600  INH600     -0.3880
     22  H2         1.7800   -1.0530   26.1560 H     600  INH600      0.2100
     23  C1         1.6700    4.0550   27.4780 C.3   600  INH600      0.2150
     24  O7         1.8600    3.2910   28.7120 O.3   600  INH600     -0.2940
     25  P2         3.2490    3.3290   29.4840 P.3   600  INH600      0.4010
     26  O3         2.8500    3.7080   30.8930 O.2   600  INH600     -0.6310
     27  O1         3.7320    1.8330   29.4670 O.3   600  INH600     -0.1950
     28  P1         4.6390    0.9830   30.4870 P.3   600  INH600      0.3990
     29  O6         6.1220    1.4910   30.3380 O.2   600  INH600     -0.6310
     30  O4         4.4960   -0.4310   30.0590 O.3   600  INH600     -0.3070
     31  H          3.5670   -0.6120   29.8460 H     600  INH600      0.2220
     32  O2         4.0770    1.2560   31.8510 O.3   600  INH600     -0.3070
     33  H          3.2510    0.7600   31.9660 H     600  INH600      0.2220
     34  O5         4.2940    4.2130   28.8500 O.3   600  INH600     -0.3070
     35  H          5.0800    4.2420   29.4160 H     600  INH600      0.2220
     36  O9         0.1750    1.4670   25.3790 O.3   600  INH600     -0.3900
     37  H1         0.6130    1.0900   24.6250 H     600  INH600      0.2100
@<TRIPOS>BOND
     1    37    36    1
     2    36     3    1
     3    21    22    1
     4    21     4    1
     5     5     2    1
     6     5     6    1
     7     5     4    1
     8    20     9    1
     9     2     1    1
    10     9    16    1
    11     9     7    1
    12     1     3    1
    13     1    23    1
    14     6     7    1
    15     6    12    1
    16     4     3    1
    17    16    14    1
    18     7     8    1
    19    12    10    1
    20    14    17    1
    21    14    11    1
    22     8    10    1
    23     8    11    2
    24    10    13    1
    25    11    15    1
    26    23    24    1
    27    15    18    1
    28    15    19    1
    29    24    25    1
    30    34    35    1
    31    34    25    1
    32    27    25    1
    33    27    28    1
    34    25    26    2
    35    31    30    1
    36    30    28    1
    37    29    28    2
    38    28    32    1
    39    32    33    1
