@<TRIPOS>MOLECULE
/tmp/ewbell/vina_2e2p_2e2p_lig/vina/vina3.pdbqt
 37 39 0 0 0
SMALL
GASTEIGER

@<TRIPOS>ATOM
      1  C2         6.3410    3.4750   26.3290 C.3   600  INH600      0.1800
      2  O8         5.0270    3.9230   26.7320 O.3   600  INH600     -0.3530
      3  C3         7.1910    3.4740   27.6250 C.3   600  INH600      0.1820
      4  C4         6.1630    3.4980   28.7630 C.3   600  INH600      0.1980
      5  C5         4.8770    4.0100   28.1360 C.3   600  INH600      0.2620
      6  N1         3.6620    3.2740   28.6320 N.3   600  INH600     -0.2970
      7  C10        2.3920    3.5570   28.2550 C.3   600  INH600      0.1380
      8  C7         1.5720    2.6660   28.9410 C.2   600  INH600      0.1070
      9  N5         1.9980    4.5310   27.3950 N.3   600  INH600     -0.3370
     10  N2         2.3170    1.8320   29.7180 N.pl3 600  INH600     -0.3490
     11  C8         0.1380    2.7550   28.7120 C.2   600  INH600      0.6860
     12  C6         3.5850    2.2370   29.5050 C.3   600  INH600      0.1870
     13  H2         1.9910    1.0770   30.3210 H     600  INH600      0.1660
     14  N4        -0.2310    3.7590   27.8260 N.pl3 600  INH600     -0.3520
     15  N3        -0.7710    2.0160   29.2570 N.pl3 600  INH600     -0.0950
     16  C9         0.6790    4.6040   27.1960 C.3   600  INH600      0.1790
     17  H4        -1.2230    3.8850   27.6250 H     600  INH600      0.1620
     18  H11       -1.7600    2.1420   29.0000 H     600  INH600      0.2600
     19  H10       -0.5070    1.2990   29.9490 H     600  INH600      0.2600
     20  H          2.6340    5.1360   26.9520 H     600  INH600      0.1680
     21  O10        6.5220    4.3500   29.8670 O.3   600  INH600     -0.3880
     22  H2         5.7290    4.7880   30.2240 H     600  INH600      0.2100
     23  C1         6.2570    2.1800   25.5340 C.3   600  INH600      0.2150
     24  O7         7.5090    1.4220   25.5850 O.3   600  INH600     -0.2940
     25  P2         7.5220   -0.0920   26.0680 P.3   600  INH600      0.4010
     26  O3         8.2680   -0.0280   27.3830 O.2   600  INH600     -0.6310
     27  O1         6.0090   -0.4140   26.3470 O.3   600  INH600     -0.1950
     28  P1         5.2930   -1.3990   27.3980 P.3   600  INH600      0.3990
     29  O6         3.7410   -1.3100   27.1470 O.2   600  INH600     -0.6310
     30  O4         5.6650   -0.8820   28.7390 O.3   600  INH600     -0.3070
     31  H          5.3620   -1.5030   29.4200 H     600  INH600      0.2220
     32  O2         5.8410   -2.7650   27.1090 O.3   600  INH600     -0.3070
     33  H          5.8100   -2.9300   26.1530 H     600  INH600      0.2220
     34  O5         8.0780   -1.0660   25.0600 O.3   600  INH600     -0.3070
     35  H          7.8110   -1.9680   25.2990 H     600  INH600      0.2220
     36  O9         8.0540    4.6240   27.5680 O.3   600  INH600     -0.3900
     37  H1         7.9340    5.0690   26.7380 H     600  INH600      0.2100
@<TRIPOS>BOND
     1    34    35    1
     2    34    25    1
     3    23    24    1
     4    23     1    1
     5    24    25    1
     6    25    27    1
     7    25    26    2
     8    33    32    1
     9     1     2    1
    10     1     3    1
    11    27    28    1
    12     2     5    1
    13    37    36    1
    14    20     9    1
    15    32    28    1
    16    29    28    2
    17    16     9    1
    18    16    14    1
    19     9     7    1
    20    28    30    1
    21    36     3    1
    22     3     4    1
    23    17    14    1
    24    14    11    1
    25     5     6    1
    26     5     4    1
    27     7     6    1
    28     7     8    1
    29     6    12    1
    30    11     8    2
    31    11    15    1
    32    30    31    1
    33     4    21    1
    34     8    10    1
    35    18    15    1
    36    15    19    1
    37    12    10    1
    38    10    13    1
    39    21    22    1
