@<TRIPOS>MOLECULE
/tmp/ewbell/vina_2e2p_2e2p_lig/vina/vina4.pdbqt
 37 39 0 0 0
SMALL
GASTEIGER

@<TRIPOS>ATOM
      1  C2         1.1700    2.9300   26.6230 C.3   600  INH600      0.1800
      2  O8         2.5050    2.9800   26.0690 O.3   600  INH600     -0.3530
      3  C3         0.7430    1.4440   26.5320 C.3   600  INH600      0.1820
      4  C4         2.0550    0.6730   26.3400 C.3   600  INH600      0.1980
      5  C5         3.0540    1.6980   25.8300 C.3   600  INH600      0.2620
      6  N1         4.4160    1.5310   26.4480 N.3   600  INH600     -0.2970
      7  C10        5.3220    2.5300   26.5780 C.3   600  INH600      0.1380
      8  C7         6.4420    1.9660   27.1820 C.2   600  INH600      0.1070
      9  N5         5.1740    3.8190   26.1790 N.3   600  INH600     -0.3370
     10  N2         6.2330    0.6460   27.4390 N.pl3 600  INH600     -0.3490
     11  C8         7.5800    2.8360   27.4410 C.2   600  INH600      0.6860
     12  C6         4.9870    0.4180   26.9750 C.3   600  INH600      0.1870
     13  H2         6.8700   -0.0170   27.8800 H     600  INH600      0.1660
     14  N4         7.3940    4.1470   27.0220 N.pl3 600  INH600     -0.3520
     15  N3         8.6980    2.4900   27.9900 N.pl3 600  INH600     -0.0950
     16  C9         6.2260    4.6060   26.4190 C.3   600  INH600      0.1790
     17  H4         8.1550    4.8110   27.1650 H     600  INH600      0.1620
     18  H11        9.4290    3.1960   28.1570 H     600  INH600      0.2600
     19  H10        8.8570    1.5090   28.2610 H     600  INH600      0.2600
     20  H          4.3540    4.1480   25.7450 H     600  INH600      0.1680
     21  O10        1.9710   -0.4120   25.3970 O.3   600  INH600     -0.3880
     22  H2         2.5880   -1.1220   25.6470 H     600  INH600      0.2100
     23  C1         1.1190    3.6020   27.9870 C.3   600  INH600      0.2150
     24  O7         2.4160    3.5690   28.6650 O.3   600  INH600     -0.2940
     25  P2         2.6280    2.6860   29.9700 P.3   600  INH600      0.4010
     26  O3         3.6830    3.4540   30.7380 O.2   600  INH600     -0.6310
     27  O1         1.2550    2.7940   30.7270 O.3   600  INH600     -0.1950
     28  P1         0.2200    1.6770   31.2450 P.3   600  INH600      0.3990
     29  O6        -0.1800    0.7920   30.0040 O.2   600  INH600     -0.6310
     30  O4        -0.9410    2.4320   31.7790 O.3   600  INH600     -0.3070
     31  H         -1.6290    2.4910   31.0980 H     600  INH600      0.2220
     32  O2         0.9600    0.8940   32.2890 O.3   600  INH600     -0.3070
     33  H          0.5060    0.9840   33.1420 H     600  INH600      0.2220
     34  O5         2.9540    1.2380   29.7000 O.3   600  INH600     -0.3070
     35  H          3.3530    1.1550   28.8190 H     600  INH600      0.2220
     36  O9        -0.1870    1.3340   25.4400 O.3   600  INH600     -0.3900
     37  H1        -0.3400    2.1930   25.0670 H     600  INH600      0.2100
@<TRIPOS>BOND
     1    37    36    1
     2    21    22    1
     3    21     4    1
     4    36     3    1
     5    20     9    1
     6     5     2    1
     7     5     4    1
     8     5     6    1
     9     2     1    1
    10     9    16    1
    11     9     7    1
    12     4     3    1
    13    16    14    1
    14     6     7    1
    15     6    12    1
    16     3     1    1
    17     7     8    1
    18     1    23    1
    19    12    10    1
    20    14    17    1
    21    14    11    1
    22     8    10    1
    23     8    11    2
    24    10    13    1
    25    11    15    1
    26    23    24    1
    27    15    18    1
    28    15    19    1
    29    24    25    1
    30    35    34    1
    31    34    25    1
    32    25    27    1
    33    25    26    2
    34    29    28    2
    35    27    28    1
    36    31    30    1
    37    28    30    1
    38    28    32    1
    39    32    33    1
