@<TRIPOS>MOLECULE
/tmp/ewbell/vina_2e2p_2e2p_lig/vina/vina1.pdbqt
 37 39 0 0 0
SMALL
GASTEIGER

@<TRIPOS>ATOM
      1  C2         6.9620   -0.7620   30.3950 C.3   600  INH600      0.1800
      2  O8         6.6900    0.5670   29.8930 O.3   600  INH600     -0.3530
      3  C3         6.0010   -0.9530   31.5950 C.3   600  INH600      0.1820
      4  C4         4.9270    0.1270   31.4080 C.3   600  INH600      0.1980
      5  C5         5.5500    1.1600   30.4840 C.3   600  INH600      0.2620
      6  N1         4.5760    1.6790   29.4610 N.3   600  INH600     -0.2970
      7  C10        4.8150    2.7340   28.6470 C.3   600  INH600      0.1380
      8  C7         3.6720    2.8940   27.8680 C.2   600  INH600      0.1070
      9  N5         5.9370    3.4970   28.6130 N.3   600  INH600     -0.3370
     10  N2         2.7460    1.9470   28.1780 N.pl3 600  INH600     -0.3490
     11  C8         3.6660    3.9750   26.8930 C.2   600  INH600      0.6860
     12  C6         3.3320    1.2270   29.1560 C.3   600  INH600      0.1870
     13  H2         1.8220    1.8130   27.7670 H     600  INH600      0.1660
     14  N4         4.8300    4.7330   26.8830 N.pl3 600  INH600     -0.3520
     15  N3         2.7000    4.2730   26.0880 N.pl3 600  INH600     -0.0950
     16  C9         5.9180    4.4870   27.7160 C.3   600  INH600      0.1790
     17  H4         4.8910    5.5140   26.2290 H     600  INH600      0.1620
     18  H11        2.8110    5.0410   25.4120 H     600  INH600      0.2600
     19  H10        1.8170    3.7420   26.1230 H     600  INH600      0.2600
     20  H          6.7070    3.3330   29.2040 H     600  INH600      0.1680
     21  O10        4.5180    0.7720   32.6290 O.3   600  INH600     -0.3880
     22  H2         5.2100    0.6750   33.3070 H     600  INH600      0.2100
     23  C1         6.9130   -1.7900   29.2740 C.3   600  INH600      0.2150
     24  O7         7.6080   -1.3260   28.0720 O.3   600  INH600     -0.2940
     25  P2         7.0350   -1.6540   26.6260 P.3   600  INH600      0.4010
     26  O3         5.9310   -2.6500   26.9100 O.2   600  INH600     -0.6310
     27  O1         6.3990   -0.2970   26.1530 O.3   600  INH600     -0.1950
     28  P1         7.0540    1.1090   25.7290 P.3   600  INH600      0.3990
     29  O6         5.8960    2.0210   25.1720 O.2   600  INH600     -0.6310
     30  O4         8.0490    0.7800   24.6770 O.3   600  INH600     -0.3070
     31  H          7.7490    0.0030   24.1790 H     600  INH600      0.2220
     32  O2         7.6650    1.6640   26.9810 O.3   600  INH600     -0.3070
     33  H          7.0470    2.2890   27.3930 H     600  INH600      0.2220
     34  O5         8.0730   -2.1100   25.6300 O.3   600  INH600     -0.3070
     35  H          7.9330   -3.0480   25.4240 H     600  INH600      0.2220
     36  O9         6.7850   -0.8230   32.7940 O.3   600  INH600     -0.3900
     37  H1         6.2590   -0.4210   33.4740 H     600  INH600      0.2100
@<TRIPOS>BOND
     1    31    30    1
     2    30    28    1
     3    29    28    2
     4    18    15    1
     5    35    34    1
     6    34    25    1
     7    28    27    1
     8    28    32    1
     9    15    19    1
    10    15    11    1
    11    27    25    1
    12    17    14    1
    13    25    26    2
    14    25    24    1
    15    14    11    1
    16    14    16    1
    17    11     8    2
    18    32    33    1
    19    16     9    1
    20    13    10    1
    21     8    10    1
    22     8     7    1
    23    24    23    1
    24    10    12    1
    25     9     7    1
    26     9    20    1
    27     7     6    1
    28    12     6    1
    29    23     1    1
    30     6     5    1
    31     2     1    1
    32     2     5    1
    33     1     3    1
    34     5     4    1
    35     4     3    1
    36     4    21    1
    37     3    36    1
    38    21    22    1
    39    36    37    1
