@<TRIPOS>MOLECULE
/tmp/ewbell/vina_2e2p_2e2p_lig/vina/vina5.pdbqt
 37 39 0 0 0
SMALL
GASTEIGER

@<TRIPOS>ATOM
      1  C2         5.9540   -1.0890   29.8720 C.3   600  INH600      0.1800
      2  O8         7.3220   -1.4950   30.1060 O.3   600  INH600     -0.3530
      3  C3         5.2140   -1.3500   31.2080 C.3   600  INH600      0.1820
      4  C4         6.3300   -1.4700   32.2540 C.3   600  INH600      0.1980
      5  C5         7.5910   -1.7840   31.4650 C.3   600  INH600      0.2620
      6  N1         8.7940   -1.0440   31.9840 N.3   600  INH600     -0.2970
      7  C10        9.8980   -0.7730   31.2480 C.3   600  INH600      0.1380
      8  C7        10.7720   -0.0920   32.0900 C.2   600  INH600      0.1070
      9  N5        10.1160   -1.1160   29.9530 N.3   600  INH600     -0.3370
     10  N2        10.2180    0.0720   33.3230 N.pl3 600  INH600     -0.3490
     11  C8        12.0540    0.3240   31.5410 C.2   600  INH600      0.6860
     12  C6         9.0130   -0.5240   33.2190 C.3   600  INH600      0.1870
     13  H2        10.6200    0.5390   34.1360 H     600  INH600      0.1660
     14  N4        12.2430   -0.0410   30.2130 N.pl3 600  INH600     -0.3520
     15  N3        12.9860    0.9610   32.1690 N.pl3 600  INH600     -0.0950
     16  C9        11.2970   -0.7310   29.4600 C.3   600  INH600      0.1790
     17  H4        13.1240    0.2110   29.7650 H     600  INH600      0.1620
     18  H11       13.8450    1.2370   31.6740 H     600  INH600      0.2600
     19  H10       12.8680    1.1940   33.1660 H     600  INH600      0.2600
     20  H          9.4550   -1.6100   29.4170 H     600  INH600      0.1680
     21  O10        6.1160   -2.5050   33.2310 O.3   600  INH600     -0.3880
     22  H2         6.5920   -3.3140   32.9730 H     600  INH600      0.2100
     23  C1         5.8930    0.3150   29.2880 C.3   600  INH600      0.2150
     24  O7         7.2240    0.8380   28.9760 O.3   600  INH600     -0.2940
     25  P2         7.5920    1.2900   27.4970 P.3   600  INH600      0.4010
     26  O3         9.1050    1.2410   27.4870 O.2   600  INH600     -0.6310
     27  O1         7.0310    0.1310   26.5950 O.3   600  INH600     -0.1950
     28  P1         7.5170   -1.3840   26.3630 P.3   600  INH600      0.3990
     29  O6         6.2400   -2.3040   26.4140 O.2   600  INH600     -0.6310
     30  O4         8.4500   -1.6760   27.4810 O.3   600  INH600     -0.3070
     31  H          8.6770   -2.6190   27.4750 H     600  INH600      0.2220
     32  O2         8.1750   -1.3960   25.0150 O.3   600  INH600     -0.3070
     33  H          7.5020   -1.5210   24.3280 H     600  INH600      0.2220
     34  O5         6.9880    2.6070   27.0760 O.3   600  INH600     -0.3070
     35  H          6.2780    2.8490   27.6910 H     600  INH600      0.2220
     36  O9         4.4230   -2.5380   31.0310 O.3   600  INH600     -0.3900
     37  H1         4.9920   -3.2980   31.0150 H     600  INH600      0.2100
@<TRIPOS>BOND
     1    33    32    1
     2    32    28    1
     3    28    29    2
     4    28    27    1
     5    28    30    1
     6    27    25    1
     7    34    25    1
     8    34    35    1
     9    31    30    1
    10    26    25    2
    11    25    24    1
    12    24    23    1
    13    23     1    1
    14    20     9    1
    15    16     9    1
    16    16    14    1
    17    17    14    1
    18     1     2    1
    19     1     3    1
    20     9     7    1
    21     2     5    1
    22    14    11    1
    23    37    36    1
    24    36     3    1
    25     3     4    1
    26     7     6    1
    27     7     8    1
    28     5     6    1
    29     5     4    1
    30    11     8    2
    31    11    15    1
    32    18    15    1
    33     6    12    1
    34     8    10    1
    35    15    19    1
    36     4    21    1
    37    22    21    1
    38    12    10    1
    39    10    13    1
