@<TRIPOS>MOLECULE
./ligand/2z8f_lig.pdb
 93 96 0 0 0
SMALL
GASTEIGER

@<TRIPOS>ATOM
      1  C1        10.6960    7.1160   14.2830 C.3   404  INH404      0.1339
      2  C2        12.2090    7.2380   14.1000 C.3   404  INH404      0.1144
      3  C3        12.9810    6.9750   15.4170 C.3   404  INH404      0.1184
      4  C4        12.4400    5.6960   16.0760 C.3   404  INH404      0.1134
      5  C5        13.0560    5.3330   17.4320 C.3   404  INH404      0.0730
      6  C6        10.3460    5.8220   14.9890 C.3   404  INH404      0.1854
      7  O1         8.9510    5.8310   15.1940 O.3   404  INH404     -0.3649
      8  O2        10.0370    7.1440   13.0250 O.3   404  INH404     -0.3841
      9  O3        12.4600    8.5340   13.6050 O.3   404  INH404     -0.3864
     10  O4        14.3680    6.7900   15.1530 O.3   404  INH404     -0.3401
     11  O5        11.0270    5.7680   16.2420 O.3   404  INH404     -0.3407
     12  O6        12.8190    3.9470   17.6550 O.3   404  INH404     -0.3924
     13  C7        15.1670    7.9690   15.1460 C.3   404  INH404      0.1884
     14  C8        16.6050    7.4440   15.2900 C.3   404  INH404      0.1345
     15  C9        17.6700    8.4860   14.9750 C.3   404  INH404      0.1205
     16  C10       17.3640    9.2000   13.6540 C.3   404  INH404      0.1123
     17  C11       15.9190    9.7070   13.6670 C.3   404  INH404      0.1130
     18  C12       15.5080   10.3380   12.3380 C.3   404  INH404      0.0730
     19  O7        16.7510    6.9810   16.6080 O.3   404  INH404     -0.3841
     20  O8        18.8820    7.7290   14.9860 O.3   404  INH404     -0.3407
     21  O9        17.4860    8.2270   12.6490 O.3   404  INH404     -0.3865
     22  O10       15.0380    8.6390   13.9130 O.3   404  INH404     -0.3405
     23  O11       14.1470   10.7610   12.4740 O.3   404  INH404     -0.3924
     24  C13       20.1050    8.4730   14.8940 C.3   404  INH404      0.1808
     25  C14       21.2090    7.5640   15.4360 C.3   404  INH404      0.1026
     26  C15       22.6350    8.0640   15.1630 C.3   404  INH404      0.1130
     27  C16       22.7630    8.5020   13.6760 C.3   404  INH404      0.1116
     28  C17       21.6290    9.4910   13.3820 C.3   404  INH404      0.1130
     29  C18       21.7550   10.1050   11.9840 C.3   404  INH404      0.0730
     30  C19       20.8900    6.1870   17.3900 C.2   404  INH404      0.2104
     31  C20       20.6940    6.1500   18.8820 C.3   404  INH404      0.0122
     32  N1        20.9900    7.4040   16.8860 N.am  404  INH404     -0.3053
     33  O12       23.4160    6.9350   15.5290 O.3   404  INH404     -0.3408
     34  O13       23.9940    9.1570   13.4990 O.3   404  INH404     -0.3865
     35  O14       20.4030    8.7990   13.5430 O.3   404  INH404     -0.3412
     36  O15       21.5740    9.0860   11.0330 O.3   404  INH404     -0.3924
     37  O16       20.9720    5.1290   16.7650 O.2   404  INH404     -0.2761
     38  C21       24.7590    7.2400   15.9440 C.3   404  INH404      0.1884
     39  C22       25.2400    6.0710   16.7980 C.3   404  INH404      0.1341
     40  C23       26.7070    6.2770   17.1370 C.3   404  INH404      0.1141
     41  C24       27.5310    6.4810   15.8500 C.3   404  INH404      0.1119
     42  C25       26.9570    7.6410   15.0320 C.3   404  INH404      0.1130
     43  C26       27.6470    7.8140   13.6800 C.3   404  INH404      0.0730
     44  O17       24.4930    6.0560   18.0060 O.3   404  INH404     -0.3841
     45  O18       27.1400    5.1550   17.8580 O.3   404  INH404     -0.3864
     46  O19       27.4860    5.2640   15.1570 O.3   404  INH404     -0.3865
     47  O20       25.5770    7.4040   14.7710 O.3   404  INH404     -0.3405
     48  O21       27.2880    9.0660   13.1310 O.3   404  INH404     -0.3924
     49  H1        10.3450    7.9630   14.8910 H     404  INH404      0.0671
     50  H2        12.5400    6.4980   13.3560 H     404  INH404      0.0648
     51  H3        12.8460    7.8300   16.0960 H     404  INH404      0.0651
     52  H4        12.6630    4.8690   15.3860 H     404  INH404      0.0647
     53  H5        14.1380    5.5310   17.4180 H     404  INH404      0.0584
     54  H6        12.5850    5.9270   18.2290 H     404  INH404      0.0584
     55  H7        10.6340    4.9580   14.3720 H     404  INH404      0.0935
     56  H8         8.6910    5.0320   15.6370 H     404  INH404      0.2126
     57  H9        10.2500    7.9520   12.5740 H     404  INH404      0.2101
     58  H10       13.3940    8.6490   13.4780 H     404  INH404      0.2100
     59  H11       13.1910    3.6930   18.4910 H     404  INH404      0.2095
     60  H12       14.8970    8.6400   15.9750 H     404  INH404      0.0938
     61  H13       16.7400    6.6020   14.5950 H     404  INH404      0.0671
     62  H14       17.7060    9.2450   15.7700 H     404  INH404      0.0651
     63  H15       18.0620   10.0330   13.4870 H     404  INH404      0.0647
     64  H16       15.8200   10.4570   14.4650 H     404  INH404      0.0647
     65  H17       16.1510   11.2020   12.1160 H     404  INH404      0.0584
     66  H18       15.5940    9.5990   11.5270 H     404  INH404      0.0584
     67  H19       17.6320    6.6480   16.7310 H     404  INH404      0.2101
     68  H20       17.3050    8.6210   11.8040 H     404  INH404      0.2100
     69  H21       13.8570   11.1600   11.6620 H     404  INH404      0.2095
     70  H22       20.0340    9.3940   15.4910 H     404  INH404      0.0930
     71  H23       21.1060    6.5810   14.9520 H     404  INH404      0.0575
     72  H24       22.8860    8.9220   15.8040 H     404  INH404      0.0644
     73  H25       22.6960    7.6290   13.0100 H     404  INH404      0.0647
     74  H26       21.6730   10.3090   14.1170 H     404  INH404      0.0647
     75  H27       22.7530   10.5520   11.8630 H     404  INH404      0.0584
     76  H28       20.9870   10.8800   11.8480 H     404  INH404      0.0584
     77  H29       20.6430    7.1780   19.2710 H     404  INH404      0.0322
     78  H30       21.5380    5.6230   19.3500 H     404  INH404      0.0322
     79  H31       19.7570    5.6230   19.1160 H     404  INH404      0.0322
     80  H32       20.9180    8.2060   17.4790 H     404  INH404      0.1492
     81  H33       24.0810    9.4280   12.5930 H     404  INH404      0.2100
     82  H34       21.6490    9.4510   10.1590 H     404  INH404      0.2095
     83  H35       24.7760    8.1670   16.5360 H     404  INH404      0.0938
     84  H36       25.1050    5.1240   16.2550 H     404  INH404      0.0671
     85  H37       26.8130    7.1730   17.7670 H     404  INH404      0.0648
     86  H38       28.5740    6.7160   16.1080 H     404  INH404      0.0647
     87  H39       27.0700    8.5680   15.6130 H     404  INH404      0.0647
     88  H40       28.7380    7.7710   13.8160 H     404  INH404      0.0584
     89  H41       27.3300    7.0100   13.0000 H     404  INH404      0.0584
     90  H42       24.7830    5.3320   18.5480 H     404  INH404      0.2101
     91  H43       28.0570    5.2580   18.0830 H     404  INH404      0.2100
     92  H44       27.9830    5.3400   14.3510 H     404  INH404      0.2100
     93  H45       27.7150    9.1770   12.2900 H     404  INH404      0.2095
@<TRIPOS>BOND
     1     1     2    1
     2     1    49    1
     3     1     8    1
     4     1     6    1
     5     2     3    1
     6     2    50    1
     7     2     9    1
     8     3    10    1
     9     3    51    1
    10     3     4    1
    11     4    11    1
    12     4    52    1
    13     4     5    1
    14     5    54    1
    15     5    53    1
    16     5    12    1
    17     6    55    1
    18     6    11    1
    19     6     7    1
    20     7    56    1
    21     8    57    1
    22     9    58    1
    23    10    13    1
    24    12    59    1
    25    13    14    1
    26    13    60    1
    27    13    22    1
    28    14    15    1
    29    14    61    1
    30    14    19    1
    31    15    20    1
    32    15    62    1
    33    15    16    1
    34    16    17    1
    35    16    63    1
    36    16    21    1
    37    17    22    1
    38    17    64    1
    39    17    18    1
    40    18    66    1
    41    18    65    1
    42    18    23    1
    43    19    67    1
    44    20    24    1
    45    21    68    1
    46    23    69    1
    47    24    25    1
    48    24    70    1
    49    24    35    1
    50    25    32    1
    51    25    71    1
    52    25    26    1
    53    26    27    1
    54    26    72    1
    55    26    33    1
    56    27    28    1
    57    27    73    1
    58    27    34    1
    59    28    35    1
    60    28    74    1
    61    28    29    1
    62    29    76    1
    63    29    75    1
    64    29    36    1
    65    30    37    2
    66    30    32   am
    67    30    31    1
    68    31    79    1
    69    31    78    1
    70    31    77    1
    71    32    80    1
    72    33    38    1
    73    34    81    1
    74    36    82    1
    75    38    83    1
    76    38    47    1
    77    38    39    1
    78    39    84    1
    79    39    44    1
    80    39    40    1
    81    40    85    1
    82    40    45    1
    83    40    41    1
    84    41    86    1
    85    41    46    1
    86    41    42    1
    87    42    87    1
    88    42    47    1
    89    42    43    1
    90    43    89    1
    91    43    88    1
    92    43    48    1
    93    44    90    1
    94    45    91    1
    95    46    92    1
    96    48    93    1
