@<TRIPOS>MOLECULE
/tmp/ewbell/vina_2z8f_2z8f_lig/vina/vina5.pdbqt
 62 65 0 0 0
SMALL
GASTEIGER

@<TRIPOS>ATOM
      1  C13       16.7520    8.0860   15.4860 C.3   404  INH404      0.2860
      2  C14       15.9030    7.8670   14.2340 C.3   404  INH404      0.1710
      3  C15       14.3870    7.9130   14.4770 C.3   404  INH404      0.1830
      4  C16       14.0280    7.0490   15.7200 C.3   404  INH404      0.1800
      5  C17       14.9170    7.5100   16.8810 C.3   404  INH404      0.1790
      6  O14       16.2620    7.2460   16.5240 O.3   404  INH404     -0.3490
      7  O8        18.0980    7.7360   15.1330 O.3   404  INH404     -0.3480
      8  C9        18.9750    7.4000   16.2100 C.3   404  INH404      0.1890
      9  C8        20.3540    7.4560   15.5670 C.3   404  INH404      0.2050
     10  C7        21.4810    6.9390   16.4770 C.3   404  INH404      0.2920
     11  O10       21.1010    5.6990   17.0280 O.3   404  INH404     -0.3480
     12  C11       19.8990    5.6610   17.7570 C.3   404  INH404      0.1790
     13  C10       18.7240    6.0280   16.8460 C.3   404  INH404      0.1810
     14  O7        20.6740    8.7780   15.2160 O.3   404  INH404     -0.3880
     15  H19       20.7220    8.8520   14.2710 H     404  INH404      0.2100
     16  O4        22.5860    6.7690   15.5940 O.3   404  INH404     -0.3480
     17  C3        23.8390    7.2570   16.0590 C.3   404  INH404      0.1870
     18  C2        24.5590    6.1800   16.9080 C.3   404  INH404      0.1830
     19  C1        26.0300    6.5230   17.1510 C.3   404  INH404      0.2040
     20  C6        26.7150    6.8840   15.8500 C.3   404  INH404      0.2880
     21  O5        26.0230    7.9710   15.2360 O.3   404  INH404     -0.3490
     22  C4        24.7060    7.6050   14.8380 C.3   404  INH404      0.1800
     23  O3        23.9560    6.0320   18.1740 O.3   404  INH404     -0.3900
     24  H10       23.6980    6.8850   18.5020 H     404  INH404      0.2100
     25  O2        26.7090    5.4220   17.7370 O.3   404  INH404     -0.3880
     26  H9        26.8880    5.6100   18.6500 H     404  INH404      0.2100
     27  O1        28.0330    7.2690   16.1740 O.3   404  INH404     -0.3690
     28  H8        28.6470    6.7690   15.6510 H     404  INH404      0.2120
     29  C5        24.1630    8.7120   13.9280 C.3   404  INH404      0.1980
     30  O6        22.9700    8.2250   13.3230 O.3   404  INH404     -0.3980
     31  H11       23.1710    7.4570   12.8010 H     404  INH404      0.2090
     32  C12       19.7680    4.2570   18.3450 C.3   404  INH404      0.1980
     33  O11       19.2000    4.3970   19.6510 O.3   404  INH404     -0.3980
     34  H21       19.8840    4.6240   20.2710 H     404  INH404      0.2090
     35  O9        18.6780    5.1100   15.7860 O.3   404  INH404     -0.3900
     36  H20       17.7900    4.7880   15.6840 H     404  INH404      0.2100
     37  N1        16.2940    8.8850   13.2400 N.am  404  INH404     -0.3490
     38  C19       16.8510    8.4970   12.1080 C.2   404  INH404      0.2140
     39  O16       17.0920    7.3360   11.7740 O.2   404  INH404     -0.2740
     40  C20       17.1700    9.6200   11.1580 C.3   404  INH404      0.1170
     41  H32       16.1390    9.8560   13.4220 H     404  INH404      0.1630
     42  O12       13.8770    7.4330   13.2410 O.3   404  INH404     -0.3480
     43  C21       12.5820    7.9460   12.8830 C.3   404  INH404      0.2920
     44  O20       12.2820    9.0710   13.7300 O.3   404  INH404     -0.3480
     45  C25       10.9920    9.6390   13.5350 C.3   404  INH404      0.1790
     46  C24        9.9190    8.5720   13.7710 C.3   404  INH404      0.1800
     47  C23       10.1760    7.3500   12.8660 C.3   404  INH404      0.1830
     48  C22       11.5800    6.8140   13.0880 C.3   404  INH404      0.2040
     49  C26       10.8720   10.8230   14.4930 C.3   404  INH404      0.1980
     50  O21        9.5390   10.9160   14.9540 O.3   404  INH404     -0.3980
     51  H45        9.2580   11.8230   14.9290 H     404  INH404      0.2090
     52  O19        9.9210    8.0930   15.0870 O.3   404  INH404     -0.3900
     53  H44       10.1930    8.7870   15.6760 H     404  INH404      0.2100
     54  O18        9.2750    6.3090   13.1320 O.3   404  INH404     -0.3900
     55  H43        9.6520    5.7200   13.7750 H     404  INH404      0.2100
     56  O17       11.8380    5.8030   12.1240 O.3   404  INH404     -0.3880
     57  H42       12.7330    5.8820   11.8140 H     404  INH404      0.2100
     58  C18       14.5350    6.8270   18.1980 C.3   404  INH404      0.1980
     59  O15       13.5180    7.5800   18.8110 O.3   404  INH404     -0.3980
     60  H34       13.4270    8.4130   18.3620 H     404  INH404      0.2090
     61  O13       12.6830    7.2770   16.0590 O.3   404  INH404     -0.3900
     62  H33       12.1200    6.8660   15.4140 H     404  INH404      0.2100
@<TRIPOS>BOND
     1    40    38    1
     2    39    38    2
     3    57    56    1
     4    38    37   am
     5    56    48    1
     6    31    30    1
     7    47    48    1
     8    47    54    1
     9    47    46    1
    10    43    48    1
    11    43    42    1
    12    43    44    1
    13    54    55    1
    14    37    41    1
    15    37     2    1
    16    42     3    1
    17    30    29    1
    18    45    44    1
    19    45    46    1
    20    45    49    1
    21    46    52    1
    22    29    22    1
    23     2     3    1
    24     2     1    1
    25    15    14    1
    26     3     4    1
    27    49    50    1
    28    22    21    1
    29    22    17    1
    30    51    50    1
    31    52    53    1
    32     7     1    1
    33     7     8    1
    34    14     9    1
    35    21    20    1
    36    62    61    1
    37     1     6    1
    38     9     8    1
    39     9    10    1
    40    16    17    1
    41    16    10    1
    42    28    27    1
    43    36    35    1
    44     4    61    1
    45     4     5    1
    46    35    13    1
    47    20    27    1
    48    20    19    1
    49    17    18    1
    50     8    13    1
    51    10    11    1
    52     6     5    1
    53    13    12    1
    54     5    58    1
    55    18    19    1
    56    18    23    1
    57    11    12    1
    58    19    25    1
    59    25    26    1
    60    12    32    1
    61    23    24    1
    62    58    59    1
    63    32    33    1
    64    60    59    1
    65    33    34    1
