@<TRIPOS>MOLECULE
/tmp/ewbell/vina_2z8f_2z8f_lig/vina/vina3.pdbqt
 62 65 0 0 0
SMALL
GASTEIGER

@<TRIPOS>ATOM
      1  C13       20.4330    8.9000   14.1480 C.3   404  INH404      0.2860
      2  C14       21.4940    7.9730   14.7440 C.3   404  INH404      0.1710
      3  C15       22.9410    8.3930   14.4520 C.3   404  INH404      0.1830
      4  C16       23.0930    8.7450   12.9450 C.3   404  INH404      0.1800
      5  C17       22.0060    9.7670   12.5920 C.3   404  INH404      0.1790
      6  O14       20.7500    9.1400   12.7840 O.3   404  INH404     -0.3490
      7  O8        19.1780    8.2180   14.2730 O.3   404  INH404     -0.3480
      8  C9        18.0050    8.9760   13.9730 C.3   404  INH404      0.1890
      9  C8        16.8770    8.0990   14.5010 C.3   404  INH404      0.2050
     10  C7        15.4740    8.6040   14.1250 C.3   404  INH404      0.2920
     11  O10       15.4410    8.9000   12.7480 O.3   404  INH404     -0.3480
     12  C11       16.3820    9.8270   12.2660 C.3   404  INH404      0.1790
     13  C10       17.8010    9.2940   12.4880 C.3   404  INH404      0.1810
     14  O7        16.9330    8.0260   15.9030 O.3   404  INH404     -0.3880
     15  H19       17.5790    7.3790   16.1610 H     404  INH404      0.2100
     16  O4        14.6220    7.5000   14.4140 O.3   404  INH404     -0.3480
     17  C3        13.3420    7.8200   14.9470 C.3   404  INH404      0.1870
     18  C2        12.2760    7.8370   13.8230 C.3   404  INH404      0.1830
     19  C1        10.8510    7.8490   14.3770 C.3   404  INH404      0.2040
     20  C6        10.6750    6.7620   15.4170 C.3   404  INH404      0.2880
     21  O5        11.6380    6.9400   16.4560 O.3   404  INH404     -0.3490
     22  C4        12.9680    6.7500   15.9840 C.3   404  INH404      0.1800
     23  O3        12.4070    8.9780   13.0040 O.3   404  INH404     -0.3900
     24  H10       13.3250    9.1210   12.8070 H     404  INH404      0.2100
     25  O2         9.9070    7.6430   13.3350 O.3   404  INH404     -0.3880
     26  H9        10.3330    7.2110   12.6050 H     404  INH404      0.2100
     27  O1         9.3700    6.8980   15.9360 O.3   404  INH404     -0.3690
     28  H8         9.0820    7.7970   15.8360 H     404  INH404      0.2120
     29  C5        13.8910    6.6530   17.2040 C.3   404  INH404      0.1980
     30  O6        14.4730    7.9360   17.4060 O.3   404  INH404     -0.3980
     31  H11       15.3220    7.8370   17.8210 H     404  INH404      0.2090
     32  C12       16.0700   10.0660   10.7890 C.3   404  INH404      0.1980
     33  O11       17.2910   10.4710   10.1610 O.3   404  INH404     -0.3980
     34  H21       17.1310   10.6370    9.2390 H     404  INH404      0.2090
     35  O9        17.9290    8.0730   11.8080 O.3   404  INH404     -0.3900
     36  H20       18.6520    7.5790   12.1790 H     404  INH404      0.2100
     37  N1        21.2630    7.9010   16.1990 N.am  404  INH404     -0.3490
     38  C19       20.9460    6.7390   16.7420 C.2   404  INH404      0.2140
     39  O16       20.8140    5.6680   16.1490 O.2   404  INH404     -0.2740
     40  C20       20.7740    6.7820   18.2370 C.3   404  INH404      0.1170
     41  H32       21.3460    8.7200   16.7660 H     404  INH404      0.1630
     42  O12       23.6700    7.2520   14.8820 O.3   404  INH404     -0.3480
     43  C21       24.9180    7.5430   15.5350 C.3   404  INH404      0.2920
     44  O20       25.9400    7.6850   14.5320 O.3   404  INH404     -0.3480
     45  C25       27.2510    7.9070   15.0410 C.3   404  INH404      0.1790
     46  C24       27.6480    6.7480   15.9590 C.3   404  INH404      0.1800
     47  C23       26.5990    6.5670   17.0740 C.3   404  INH404      0.1830
     48  C22       25.2170    6.3770   16.4720 C.3   404  INH404      0.2040
     49  C26       28.1810    8.0570   13.8380 C.3   404  INH404      0.1980
     50  O21       29.0620    9.1400   14.0630 O.3   404  INH404     -0.3980
     51  H45       29.3110    9.5240   13.2310 H     404  INH404      0.2090
     52  O19       27.7140    5.5250   15.2800 O.3   404  INH404     -0.3900
     53  H44       27.0440    5.5000   14.6060 H     404  INH404      0.2100
     54  O18       26.8750    5.4470   17.8710 O.3   404  INH404     -0.3900
     55  H43       27.2290    4.7520   17.3280 H     404  INH404      0.2100
     56  O17       24.2590    6.3840   17.5220 O.3   404  INH404     -0.3880
     57  H42       24.5870    6.9030   18.2460 H     404  INH404      0.2100
     58  C18       22.1640   10.2990   11.1640 C.3   404  INH404      0.1980
     59  O15       22.6490    9.2580   10.3540 O.3   404  INH404     -0.3980
     60  H34       22.2610    8.4360   10.6280 H     404  INH404      0.2090
     61  O13       24.3530    9.3340   12.7400 O.3   404  INH404     -0.3900
     62  H33       24.4050    9.6700   11.8530 H     404  INH404      0.2100
@<TRIPOS>BOND
     1    34    33    1
     2    33    32    1
     3    59    60    1
     4    59    58    1
     5    32    12    1
     6    58     5    1
     7    35    36    1
     8    35    13    1
     9    62    61    1
    10    12    13    1
    11    12    11    1
    12    13     8    1
    13     5     6    1
    14     5     4    1
    15    26    25    1
    16    61     4    1
    17    11    10    1
    18     6     1    1
    19    24    23    1
    20     4     3    1
    21    23    18    1
    22    51    50    1
    23    25    19    1
    24    18    19    1
    25    18    17    1
    26    49    50    1
    27    49    45    1
    28     8     7    1
    29     8     9    1
    30    10    16    1
    31    10     9    1
    32     1     7    1
    33     1     2    1
    34    19    20    1
    35    16    17    1
    36     3     2    1
    37     3    42    1
    38     9    14    1
    39    44    45    1
    40    44    43    1
    41    53    52    1
    42     2    37    1
    43    42    43    1
    44    17    22    1
    45    45    46    1
    46    52    46    1
    47    20    27    1
    48    20    21    1
    49    43    48    1
    50    28    27    1
    51    14    15    1
    52    46    47    1
    53    22    21    1
    54    22    29    1
    55    39    38    2
    56    37    38   am
    57    37    41    1
    58    48    47    1
    59    48    56    1
    60    38    40    1
    61    47    54    1
    62    29    30    1
    63    55    54    1
    64    30    31    1
    65    56    57    1
