@<TRIPOS>MOLECULE
/tmp/ewbell/vina_2z8f_2z8f_lig/vina/vina1.pdbqt
 62 65 0 0 0
SMALL
GASTEIGER

@<TRIPOS>ATOM
      1  C13       16.8510    6.8120   16.0950 C.3   404  INH404      0.2860
      2  C14       16.4390    7.3740   14.7340 C.3   404  INH404      0.1710
      3  C15       15.0350    7.9950   14.7010 C.3   404  INH404      0.1830
      4  C16       14.0210    7.0410   15.3950 C.3   404  INH404      0.1800
      5  C17       14.5790    6.6960   16.7810 C.3   404  INH404      0.1790
      6  O14       15.7970    5.9980   16.5920 O.3   404  INH404     -0.3490
      7  O8        18.0390    6.0390   15.8750 O.3   404  INH404     -0.3480
      8  C9        19.0320    6.0860   16.9010 C.3   404  INH404      0.1890
      9  C8        20.3230    6.3150   16.1260 C.3   404  INH404      0.2050
     10  C7        21.5890    6.2110   16.9920 C.3   404  INH404      0.2920
     11  O10       21.5270    5.0350   17.7660 O.3   404  INH404     -0.3480
     12  C11       20.4100    4.8750   18.6050 C.3   404  INH404      0.1790
     13  C10       19.1300    4.8250   17.7660 C.3   404  INH404      0.1810
     14  O7        20.3200    7.5930   15.5420 O.3   404  INH404     -0.3880
     15  H19       20.6480    7.5360   14.6530 H     404  INH404      0.2100
     16  O4        22.6490    6.1240   16.0440 O.3   404  INH404     -0.3480
     17  C3        23.8740    6.7440   16.4160 C.3   404  INH404      0.1870
     18  C2        24.8730    5.6920   16.9600 C.3   404  INH404      0.1830
     19  C1        26.2960    6.2430   17.0610 C.3   404  INH404      0.2040
     20  C6        26.7030    6.9090   15.7640 C.3   404  INH404      0.2880
     21  O5        25.7680    7.9410   15.4470 O.3   404  INH404     -0.3490
     22  C4        24.4730    7.4160   15.1700 C.3   404  INH404      0.1800
     23  O3        24.5090    5.2530   18.2500 O.3   404  INH404     -0.3900
     24  H10       25.2780    5.2340   18.8050 H     404  INH404      0.2100
     25  O2        27.2160    5.1990   17.3490 O.3   404  INH404     -0.3880
     26  H9        28.0730    5.5700   17.5140 H     404  INH404      0.2100
     27  O1        27.9840    7.4620   15.9710 O.3   404  INH404     -0.3690
     28  H8        28.4310    6.9780   16.6550 H     404  INH404      0.2120
     29  C5        23.6340    8.5390   14.5490 C.3   404  INH404      0.1980
     30  O6        22.6320    7.9290   13.7420 O.3   404  INH404     -0.3980
     31  H11       22.2220    7.2230   14.2260 H     404  INH404      0.2090
     32  C12       20.6300    3.5990   19.4170 C.3   404  INH404      0.1980
     33  O11       21.2780    2.6580   18.5550 O.3   404  INH404     -0.3980
     34  H21       21.3530    3.0270   17.6830 H     404  INH404      0.2090
     35  O9        19.2250    3.7470   16.8730 O.3   404  INH404     -0.3900
     36  H20       18.7440    3.9510   16.0790 H     404  INH404      0.2100
     37  N1        17.4500    8.3690   14.3320 N.am  404  INH404     -0.3490
     38  C19       17.9050    8.3570   13.0920 C.2   404  INH404      0.2140
     39  O16       17.5690    7.5800   12.1980 O.2   404  INH404     -0.2740
     40  C20       18.9020    9.4440   12.7890 C.3   404  INH404      0.1170
     41  H32       17.7860    9.0440   14.9890 H     404  INH404      0.1630
     42  O12       14.8300    8.1830   13.3080 O.3   404  INH404     -0.3480
     43  C21       14.2760    9.4600   12.9460 C.3   404  INH404      0.2920
     44  O20       12.9210    9.5270   13.4280 O.3   404  INH404     -0.3480
     45  C25       12.2200   10.7150   13.0780 C.3   404  INH404      0.1790
     46  C24       12.1880   10.8630   11.5540 C.3   404  INH404      0.1800
     47  C23       13.6200   10.8270   10.9850 C.3   404  INH404      0.1830
     48  C22       14.3310    9.5590   11.4250 C.3   404  INH404      0.2040
     49  C26       10.8250   10.6130   13.6940 C.3   404  INH404      0.1980
     50  O21       10.9120    9.9440   14.9360 O.3   404  INH404     -0.3980
     51  H45       10.6430    9.0400   14.8290 H     404  INH404      0.2090
     52  O19       11.4900    9.8210   10.9300 O.3   404  INH404     -0.3900
     53  H44       12.0760    9.0860   10.7920 H     404  INH404      0.2100
     54  O18       13.6230   10.8530    9.5830 O.3   404  INH404     -0.3900
     55  H43       14.1160   10.1100    9.2540 H     404  INH404      0.2100
     56  O17       15.6920    9.6390   11.0270 O.3   404  INH404     -0.3880
     57  H42       15.8820    8.9440   10.4070 H     404  INH404      0.2100
     58  C18       13.5810    5.8830   17.6120 C.3   404  INH404      0.1980
     59  O15       12.6370    6.7670   18.1630 O.3   404  INH404     -0.3980
     60  H34       12.0250    6.2800   18.7030 H     404  INH404      0.2090
     61  O13       12.7970    7.7140   15.5530 O.3   404  INH404     -0.3900
     62  H33       12.6350    7.8630   16.4760 H     404  INH404      0.2100
@<TRIPOS>BOND
     1    55    54    1
     2    54    47    1
     3    57    56    1
     4    53    52    1
     5    52    46    1
     6    47    48    1
     7    47    46    1
     8    56    48    1
     9    48    43    1
    10    46    45    1
    11    39    38    2
    12    40    38    1
    13    43    42    1
    14    43    44    1
    15    45    44    1
    16    45    49    1
    17    38    37   am
    18    42     3    1
    19    49    50    1
    20    30    31    1
    21    30    29    1
    22    37     2    1
    23    37    41    1
    24    29    22    1
    25    15    14    1
    26     3     2    1
    27     3     4    1
    28     2     1    1
    29    51    50    1
    30    22    21    1
    31    22    17    1
    32     4    61    1
    33     4     5    1
    34    21    20    1
    35    14     9    1
    36    61    62    1
    37    20    27    1
    38    20    19    1
    39     7     1    1
    40     7     8    1
    41    27    28    1
    42    16    17    1
    43    16    10    1
    44    36    35    1
    45     1     6    1
    46     9     8    1
    47     9    10    1
    48    17    18    1
    49     6     5    1
    50     5    58    1
    51    35    13    1
    52     8    13    1
    53    18    19    1
    54    18    23    1
    55    10    11    1
    56    19    25    1
    57    25    26    1
    58    58    59    1
    59    34    33    1
    60    13    12    1
    61    11    12    1
    62    59    60    1
    63    23    24    1
    64    33    32    1
    65    12    32    1
