@<TRIPOS>MOLECULE
/tmp/ewbell/vina_2z8f_2z8f_lig/vina/vina2.pdbqt
 62 65 0 0 0
SMALL
GASTEIGER

@<TRIPOS>ATOM
      1  C13       20.1550    8.5920   14.3520 C.3   404  INH404      0.2860
      2  C14       21.2300    7.6780   14.9410 C.3   404  INH404      0.1710
      3  C15       22.6690    8.1650   14.7200 C.3   404  INH404      0.1830
      4  C16       22.8580    8.5940   13.2370 C.3   404  INH404      0.1800
      5  C17       21.7430    9.5900   12.8950 C.3   404  INH404      0.1790
      6  O14       20.5070    8.9080   13.0120 O.3   404  INH404     -0.3490
      7  O8        18.9230    7.8580   14.4010 O.3   404  INH404     -0.3480
      8  C9        17.7240    8.6050   14.1880 C.3   404  INH404      0.1890
      9  C8        16.8970    8.3000   15.4300 C.3   404  INH404      0.2050
     10  C7        15.4580    8.8360   15.3600 C.3   404  INH404      0.2920
     11  O10       14.8850    8.4710   14.1260 O.3   404  INH404     -0.3480
     12  C11       15.5580    8.8750   12.9590 C.3   404  INH404      0.1790
     13  C10       16.9520    8.2420   12.9150 C.3   404  INH404      0.1810
     14  O7        17.4990    8.8660   16.5670 O.3   404  INH404     -0.3880
     15  H19       16.8400    9.3080   17.0870 H     404  INH404      0.2100
     16  O4        14.7910    8.1730   16.4300 O.3   404  INH404     -0.3480
     17  C3        14.5950    6.7730   16.2730 C.3   404  INH404      0.1870
     18  C2        15.2790    5.9960   17.4260 C.3   404  INH404      0.1830
     19  C1        14.8270    4.5360   17.4890 C.3   404  INH404      0.2040
     20  C6        13.3160    4.4440   17.4570 C.3   404  INH404      0.2880
     21  O5        12.8270    5.0900   16.2810 O.3   404  INH404     -0.3490
     22  C4        13.0840    6.4900   16.2980 C.3   404  INH404      0.1800
     23  O3        16.6820    5.9860   17.2800 O.3   404  INH404     -0.3900
     24  H10       17.0870    5.8520   18.1280 H     404  INH404      0.2100
     25  O2        15.2990    3.9180   18.6770 O.3   404  INH404     -0.3880
     26  H9        15.5320    4.5860   19.3100 H     404  INH404      0.2100
     27  O1        12.9890    3.0730   17.4290 O.3   404  INH404     -0.3690
     28  H8        13.2190    2.7090   16.5830 H     404  INH404      0.2120
     29  C5        12.2670    7.1330   15.1710 C.3   404  INH404      0.1980
     30  O6        12.6880    6.5450   13.9460 O.3   404  INH404     -0.3980
     31  H11       12.0460    5.9020   13.6680 H     404  INH404      0.2090
     32  C12       14.6910    8.4690   11.7690 C.3   404  INH404      0.1980
     33  O11       13.3290    8.7080   12.1390 O.3   404  INH404     -0.3980
     34  H21       13.2700    9.5280   12.6160 H     404  INH404      0.2090
     35  O9        16.8080    6.8460   12.9330 O.3   404  INH404     -0.3900
     36  H20       17.6660    6.4390   12.9140 H     404  INH404      0.2100
     37  N1        20.9540    7.5270   16.3820 N.am  404  INH404     -0.3490
     38  C19       20.7250    6.3210   16.8700 C.2   404  INH404      0.2140
     39  O16       20.7150    5.2670   16.2340 O.2   404  INH404     -0.2740
     40  C20       20.4960    6.2890   18.3570 C.3   404  INH404      0.1170
     41  H32       20.9400    8.3270   16.9820 H     404  INH404      0.1630
     42  O12       23.4260    7.0320   15.1220 O.3   404  INH404     -0.3480
     43  C21       24.6840    7.3390   15.7500 C.3   404  INH404      0.2920
     44  O20       25.6590    7.6000   14.7240 O.3   404  INH404     -0.3480
     45  C25       26.9770    7.8500   15.2010 C.3   404  INH404      0.1790
     46  C24       27.4630    6.6510   16.0210 C.3   404  INH404      0.1800
     47  C23       26.4660    6.3430   17.1560 C.3   404  INH404      0.1830
     48  C22       25.0720    6.1270   16.5910 C.3   404  INH404      0.2040
     49  C26       27.8530    8.1270   13.9800 C.3   404  INH404      0.1980
     50  O21       27.2180    9.0880   13.1600 O.3   404  INH404     -0.3980
     51  H45       26.9470    9.8280   13.6910 H     404  INH404      0.2090
     52  O19       27.5590    5.4820   15.2550 O.3   404  INH404     -0.3900
     53  H44       26.7470    4.9930   15.3200 H     404  INH404      0.2100
     54  O18       26.8240    5.1860   17.8620 O.3   404  INH404     -0.3900
     55  H43       26.0510    4.8120   18.2690 H     404  INH404      0.2100
     56  O17       24.1560    6.0150   17.6720 O.3   404  INH404     -0.3880
     57  H42       24.5690    6.3250   18.4690 H     404  INH404      0.2100
     58  C18       21.9280   10.1950   11.5000 C.3   404  INH404      0.1980
     59  O15       22.4800    9.2140   10.6590 O.3   404  INH404     -0.3980
     60  H34       23.4230    9.3220   10.6220 H     404  INH404      0.2090
     61  O13       24.1000    9.2380   13.1040 O.3   404  INH404     -0.3900
     62  H33       24.6570    8.7350   12.5240 H     404  INH404      0.2100
@<TRIPOS>BOND
     1    60    59    1
     2    59    58    1
     3    58     5    1
     4    32    33    1
     5    32    12    1
     6    33    34    1
     7    62    61    1
     8     5     6    1
     9     5     4    1
    10    36    35    1
    11    13    35    1
    12    13    12    1
    13    13     8    1
    14    12    11    1
    15     6     1    1
    16    61     4    1
    17    50    51    1
    18    50    49    1
    19     4     3    1
    20    31    30    1
    21    30    29    1
    22    49    45    1
    23    11    10    1
    24     8     7    1
    25     8     9    1
    26     1     7    1
    27     1     2    1
    28     3     2    1
    29     3    42    1
    30    44    45    1
    31    44    43    1
    32     2    37    1
    33    42    43    1
    34    29    22    1
    35    45    46    1
    36    52    53    1
    37    52    46    1
    38    10     9    1
    39    10    16    1
    40     9    14    1
    41    43    48    1
    42    46    47    1
    43    39    38    2
    44    17    22    1
    45    17    16    1
    46    17    18    1
    47    21    22    1
    48    21    20    1
    49    37    38   am
    50    37    41    1
    51    14    15    1
    52    28    27    1
    53    48    47    1
    54    48    56    1
    55    38    40    1
    56    47    54    1
    57    23    18    1
    58    23    24    1
    59    18    19    1
    60    27    20    1
    61    20    19    1
    62    19    25    1
    63    56    57    1
    64    54    55    1
    65    25    26    1
