@<TRIPOS>MOLECULE
/tmp/ewbell/vina_2z8f_2z8f_lig/vina/vina4.pdbqt
 62 65 0 0 0
SMALL
GASTEIGER

@<TRIPOS>ATOM
      1  C13       21.2990    8.7590   12.6410 C.3   404  INH404      0.2860
      2  C14       21.9850    8.0020   13.7800 C.3   404  INH404      0.1710
      3  C15       23.5060    7.8630   13.6250 C.3   404  INH404      0.1830
      4  C16       23.8480    7.4030   12.1790 C.3   404  INH404      0.1800
      5  C17       23.1510    8.3630   11.2070 C.3   404  INH404      0.1790
      6  O14       21.7540    8.2320   11.4020 O.3   404  INH404     -0.3490
      7  O8        19.8890    8.5500   12.8030 O.3   404  INH404     -0.3480
      8  C9        19.0260    9.5330   12.2280 C.3   404  INH404      0.1890
      9  C8        17.6530    9.1470   12.7620 C.3   404  INH404      0.2050
     10  C7        16.4990    9.9430   12.1300 C.3   404  INH404      0.2920
     11  O10       16.6460    9.9400   10.7280 O.3   404  INH404     -0.3480
     12  C11       17.8540   10.4350   10.2070 C.3   404  INH404      0.1790
     13  C10       19.0250    9.5760   10.6960 C.3   404  INH404      0.1810
     14  O7        17.5940    9.3570   14.1500 O.3   404  INH404     -0.3880
     15  H19       17.2670   10.2310   14.3240 H     404  INH404      0.2100
     16  O4        15.3330    9.2160   12.5070 O.3   404  INH404     -0.3480
     17  C3        14.3140    9.9650   13.1590 C.3   404  INH404      0.1870
     18  C2        13.3820   10.6340   12.1180 C.3   404  INH404      0.1830
     19  C1        12.0960   11.1680   12.7510 C.3   404  INH404      0.2040
     20  C6        11.4440   10.1050   13.6110 C.3   404  INH404      0.2880
     21  O5        12.3710    9.6670   14.6060 O.3   404  INH404     -0.3490
     22  C4        13.4910    9.0030   14.0310 C.3   404  INH404      0.1800
     23  O3        14.0130   11.7260   11.4870 O.3   404  INH404     -0.3900
     24  H10       13.4100   12.4570   11.4430 H     404  INH404      0.2100
     25  O2        11.1760   11.5730   11.7470 O.3   404  INH404     -0.3880
     26  H9        11.4420   11.2130   10.9100 H     404  INH404      0.2100
     27  O1        10.3230   10.7030   14.2220 O.3   404  INH404     -0.3690
     28  H8        10.5870   11.1160   15.0350 H     404  INH404      0.2120
     29  C5        14.2580    8.3080   15.1630 C.3   404  INH404      0.1980
     30  O6        15.3030    9.1830   15.5740 O.3   404  INH404     -0.3980
     31  H11       14.9400    9.8780   16.1110 H     404  INH404      0.2090
     32  C12       17.7260   10.4380    8.6850 C.3   404  INH404      0.1980
     33  O11       19.0490   10.5360    8.1500 O.3   404  INH404     -0.3980
     34  H21       19.0280   11.0360    7.3420 H     404  INH404      0.2090
     35  O9        18.8160    8.2550   10.2700 O.3   404  INH404     -0.3900
     36  H20       18.5880    7.7140   11.0170 H     404  INH404      0.2100
     37  N1        21.6580    8.6920   15.0420 N.am  404  INH404     -0.3490
     38  C19       21.0520    8.0200   16.0030 C.2   404  INH404      0.2140
     39  O16       20.7140    6.8360   15.9650 O.2   404  INH404     -0.2740
     40  C20       20.8060    8.8180   17.2560 C.3   404  INH404      0.1170
     41  H32       21.8930    9.6560   15.1670 H     404  INH404      0.1630
     42  O12       23.8200    6.9270   14.6460 O.3   404  INH404     -0.3480
     43  C21       24.9550    7.2790   15.4580 C.3   404  INH404      0.2920
     44  O20       26.0720    7.5540   14.5930 O.3   404  INH404     -0.3480
     45  C25       27.2910    7.8480   15.2670 C.3   404  INH404      0.1790
     46  C24       27.6730    6.6750   16.1740 C.3   404  INH404      0.1800
     47  C23       26.5190    6.3540   17.1430 C.3   404  INH404      0.1830
     48  C22       25.2380    6.0900   16.3710 C.3   404  INH404      0.2040
     49  C26       28.3410    8.1350   14.1940 C.3   404  INH404      0.1980
     50  O21       28.1280    7.2750   13.0920 O.3   404  INH404     -0.3980
     51  H45       28.1340    7.7810   12.2890 H     404  INH404      0.2090
     52  O19       27.9200    5.4990   15.4530 O.3   404  INH404     -0.3900
     53  H44       28.8420    5.4530   15.2280 H     404  INH404      0.2100
     54  O18       26.7920    5.2160   17.9170 O.3   404  INH404     -0.3900
     55  H43       27.0030    5.4810   18.8050 H     404  INH404      0.2100
     56  O17       24.1670    5.9660   17.2960 O.3   404  INH404     -0.3880
     57  H42       23.4770    5.4360   16.9120 H     404  INH404      0.2100
     58  C18       23.5490    8.0910    9.7530 C.3   404  INH404      0.1980
     59  O15       23.9290    6.7430    9.6400 O.3   404  INH404     -0.3980
     60  H34       23.3880    6.3150    8.9860 H     404  INH404      0.2090
     61  O13       25.2380    7.4940   11.9890 O.3   404  INH404     -0.3900
     62  H33       25.6780    7.4070   12.8250 H     404  INH404      0.2100
@<TRIPOS>BOND
     1    34    33    1
     2    33    32    1
     3    32    12    1
     4    60    59    1
     5    59    58    1
     6    58     5    1
     7    12    13    1
     8    12    11    1
     9    35    13    1
    10    35    36    1
    11    13     8    1
    12    11    10    1
    13    26    25    1
    14     5     6    1
    15     5     4    1
    16     6     1    1
    17    24    23    1
    18    23    18    1
    19    25    19    1
    20    61     4    1
    21    61    62    1
    22    18    19    1
    23    18    17    1
    24    10    16    1
    25    10     9    1
    26     4     3    1
    27     8     9    1
    28     8     7    1
    29    51    50    1
    30    16    17    1
    31     1     7    1
    32     1     2    1
    33    19    20    1
    34     9    14    1
    35    50    49    1
    36    17    22    1
    37    20    27    1
    38    20    21    1
    39     3     2    1
    40     3    42    1
    41     2    37    1
    42    22    21    1
    43    22    29    1
    44    14    15    1
    45    49    45    1
    46    27    28    1
    47    44    45    1
    48    44    43    1
    49    42    43    1
    50    37    41    1
    51    37    38   am
    52    29    30    1
    53    53    52    1
    54    45    46    1
    55    52    46    1
    56    43    48    1
    57    30    31    1
    58    39    38    2
    59    38    40    1
    60    46    47    1
    61    48    47    1
    62    48    56    1
    63    57    56    1
    64    47    54    1
    65    54    55    1
