@<TRIPOS>MOLECULE
./ligand/1z3t_lig.pdb
 45 46 0 0 0
SMALL
GASTEIGER

@<TRIPOS>ATOM
      1  C1         3.0130   10.7670   23.6450 C.3   433  INH433      0.1884
      2  C2         4.2470    9.8970   23.2410 C.3   433  INH433      0.1341
      3  C3         4.2060    8.6560   24.1070 C.3   433  INH433      0.1141
      4  C4         4.0640    9.0070   25.5540 C.3   433  INH433      0.1119
      5  C5         2.8220    9.8650   25.7890 C.3   433  INH433      0.1130
      6  C6         2.6210   10.2410   27.2480 C.3   433  INH433      0.0730
      7  O1         4.3390    9.5460   21.8170 O.3   433  INH433     -0.3841
      8  O2         5.3420    7.7740   23.9190 O.3   433  INH433     -0.3864
      9  O3         3.9450    7.7710   26.2830 O.3   433  INH433     -0.3865
     10  O4         3.0240   11.0590   25.0590 O.3   433  INH433     -0.3405
     11  O5         3.7610   10.8780   27.7330 O.3   433  INH433     -0.3924
     12  C7         0.7070   15.1070   21.7890 C.3   433  INH433      0.1854
     13  C8         0.9420   15.0460   23.2800 C.3   433  INH433      0.1339
     14  C9         2.0910   14.1440   23.5860 C.3   433  INH433      0.1144
     15  C10        1.8880   12.7720   22.8890 C.3   433  INH433      0.1184
     16  C11        1.6550   12.9800   21.4230 C.3   433  INH433      0.1134
     17  C12        1.3560   11.6520   20.7220 C.3   433  INH433      0.0730
     18  O6        -0.4770   15.8680   21.6060 O.3   433  INH433     -0.3649
     19  O7         1.3540   16.3480   23.6860 O.3   433  INH433     -0.3841
     20  O8         2.1700   13.9510   24.9750 O.3   433  INH433     -0.3864
     21  O9         3.0560   11.9980   23.0030 O.3   433  INH433     -0.3401
     22  O10        0.5240   13.8130   21.2330 O.3   433  INH433     -0.3407
     23  O11        0.4290   10.8570   21.4560 O.3   433  INH433     -0.3924
     24  H1         2.0900   10.2310   23.3770 H     433  INH433      0.0938
     25  H2         5.1540   10.4680   23.4880 H     433  INH433      0.0671
     26  H3         3.3080    8.0930   23.8130 H     433  INH433      0.0648
     27  H4         4.9540    9.5580   25.8910 H     433  INH433      0.0647
     28  H5         1.9310    9.3320   25.4250 H     433  INH433      0.0647
     29  H6         2.4330    9.3310   27.8370 H     433  INH433      0.0584
     30  H7         1.7590   10.9190   27.3350 H     433  INH433      0.0584
     31  H8         4.3630   10.3400   21.2960 H     433  INH433      0.2101
     32  H9         5.4250    7.5560   22.9980 H     433  INH433      0.2100
     33  H10        4.7190    7.2400   26.1350 H     433  INH433      0.2100
     34  H11        3.6300   11.1110   28.6450 H     433  INH433      0.2095
     35  H12        1.5590   15.5980   21.2950 H     433  INH433      0.0935
     36  H13        0.0330   14.7220   23.8080 H     433  INH433      0.0671
     37  H14        3.0230   14.6030   23.2250 H     433  INH433      0.0648
     38  H15        1.0350   12.2470   23.3430 H     433  INH433      0.0651
     39  H16        2.5460   13.4450   20.9760 H     433  INH433      0.0647
     40  H17        2.2950   11.0900   20.6100 H     433  INH433      0.0584
     41  H18        0.9340   11.8620   19.7280 H     433  INH433      0.0584
     42  H19       -0.6690   15.9360   20.6780 H     433  INH433      0.2126
     43  H20        0.6560   16.9690   23.5140 H     433  INH433      0.2101
     44  H21        2.2940   14.7890   25.4050 H     433  INH433      0.2100
     45  H22        0.2700   10.0450   20.9900 H     433  INH433      0.2095
@<TRIPOS>BOND
     1     1    21    1
     2     1    24    1
     3     1    10    1
     4     1     2    1
     5     2    25    1
     6     2     7    1
     7     2     3    1
     8     3    26    1
     9     3     8    1
    10     3     4    1
    11     4    27    1
    12     4     9    1
    13     4     5    1
    14     5    28    1
    15     5    10    1
    16     5     6    1
    17     6    30    1
    18     6    29    1
    19     6    11    1
    20     7    31    1
    21     8    32    1
    22     9    33    1
    23    11    34    1
    24    12    35    1
    25    12    22    1
    26    12    18    1
    27    12    13    1
    28    13    36    1
    29    13    19    1
    30    13    14    1
    31    14    37    1
    32    14    20    1
    33    14    15    1
    34    15    38    1
    35    15    21    1
    36    15    16    1
    37    16    39    1
    38    16    22    1
    39    16    17    1
    40    17    41    1
    41    17    40    1
    42    17    23    1
    43    18    42    1
    44    19    43    1
    45    20    44    1
    46    23    45    1
