@<TRIPOS>MOLECULE
/tmp/ewbell/vina_1z3t_1z3t_lig/vina/vina3.pdbqt
 31 32 0 0 0
SMALL
GASTEIGER

@<TRIPOS>ATOM
      1  O9         3.3750    9.9090   21.7300 O.3   433  INH433     -0.3480
      2  C1         3.4310    8.9090   22.6920 C.3   433  INH433      0.2920
      3  O4         3.6100    9.5860   23.9550 O.3   433  INH433     -0.3480
      4  C5         3.5180    8.6490   25.0100 C.3   433  INH433      0.1790
      5  C4         4.7350    7.7360   24.8760 C.3   433  INH433      0.1800
      6  C3         4.7050    6.9900   23.5800 C.3   433  INH433      0.1830
      7  C2         4.6200    7.9370   22.4010 C.3   433  INH433      0.2040
      8  C6         3.4910    9.4230   26.3180 C.3   433  INH433      0.1980
      9  O5         4.7930    9.6750   26.7440 O.3   433  INH433     -0.3980
     10  H11        4.8070   10.4680   27.2680 H     433  INH433      0.2090
     11  O3         4.7260    6.7570   25.9320 O.3   433  INH433     -0.3900
     12  H10        5.1000    7.1350   26.7190 H     433  INH433      0.2100
     13  O2         5.8230    6.0690   23.5100 O.3   433  INH433     -0.3900
     14  H9         6.4590    6.2910   24.1800 H     433  INH433      0.2100
     15  O1         4.5430    7.1990   21.1340 O.3   433  INH433     -0.3880
     16  H8         5.4070    6.8870   20.8950 H     433  INH433      0.2100
     17  C10        2.4000   10.9180   21.8210 C.3   433  INH433      0.1870
     18  C9         3.0820   12.3030   21.9790 C.3   433  INH433      0.1830
     19  C8         2.0670   13.3880   21.8560 C.3   433  INH433      0.2040
     20  C7         1.2580   13.2080   20.5930 C.3   433  INH433      0.2880
     21  O10        0.6630   11.9200   20.5310 O.3   433  INH433     -0.3490
     22  C11        1.6270   10.8800   20.5370 C.3   433  INH433      0.1800
     23  O8         3.6890   12.3780   23.2440 O.3   433  INH433     -0.3900
     24  H21        3.0550   12.6860   23.8810 H     433  INH433      0.2100
     25  O7         2.8080   14.5950   21.7010 O.3   433  INH433     -0.3880
     26  H20        2.3210   15.3180   22.0810 H     433  INH433      0.2100
     27  O6         0.2390   14.1940   20.6310 O.3   433  INH433     -0.3690
     28  H19        0.0450   14.4140   21.5350 H     433  INH433      0.2120
     29  C12        0.8620    9.5610   20.3970 C.3   433  INH433      0.1980
     30  O11       -0.5330    9.7720   20.1940 O.3   433  INH433     -0.3980
     31  H22       -1.0240    9.2970   20.8550 H     433  INH433      0.2090
@<TRIPOS>BOND
     1    30    29    1
     2    30    31    1
     3    29    22    1
     4    21    22    1
     5    21    20    1
     6    22    17    1
     7    20    27    1
     8    20    19    1
     9    27    28    1
    10    16    15    1
    11    15     7    1
    12    25    19    1
    13    25    26    1
    14     1    17    1
    15     1     2    1
    16    17    18    1
    17    19    18    1
    18    18    23    1
    19     7     2    1
    20     7     6    1
    21     2     3    1
    22    23    24    1
    23    13     6    1
    24    13    14    1
    25     6     5    1
    26     3     4    1
    27     5     4    1
    28     5    11    1
    29     4     8    1
    30    11    12    1
    31     8     9    1
    32     9    10    1
