@<TRIPOS>MOLECULE
/tmp/ewbell/vina_1z3t_1z3t_lig/vina/vina1.pdbqt
 31 32 0 0 0
SMALL
GASTEIGER

@<TRIPOS>ATOM
      1  O9         3.7490   10.3050   23.7760 O.3   433  INH433     -0.3480
      2  C1         2.6340   10.8670   23.1680 C.3   433  INH433      0.2920
      3  O4         2.3220   10.0090   22.0490 O.3   433  INH433     -0.3480
      4  C5         1.1010   10.4210   21.4660 C.3   433  INH433      0.1790
      5  C4         1.3640   11.7930   20.8500 C.3   433  INH433      0.1800
      6  C3         1.7440   12.7880   21.9000 C.3   433  INH433      0.1830
      7  C2         2.9470   12.3220   22.6910 C.3   433  INH433      0.2040
      8  C6         0.6980    9.3720   20.4420 C.3   433  INH433      0.1980
      9  O5        -0.6450    9.5290   20.1070 O.3   433  INH433     -0.3980
     10  H11       -1.1160    9.8960   20.8470 H     433  INH433      0.2090
     11  O3         0.1670   12.2790   20.2150 O.3   433  INH433     -0.3900
     12  H10        0.2420   12.1760   19.2740 H     433  INH433      0.2100
     13  O2         1.9080   14.1010   21.3050 O.3   433  INH433     -0.3900
     14  H9         2.4700   14.6310   21.8570 H     433  INH433      0.2100
     15  O1         3.2870   13.2790   23.7520 O.3   433  INH433     -0.3880
     16  H8         3.6780   14.0540   23.3670 H     433  INH433      0.2100
     17  C10        3.7510    8.9410   24.1170 C.3   433  INH433      0.1870
     18  C9         4.8170    8.1860   23.2790 C.3   433  INH433      0.1830
     19  C8         4.9740    6.7930   23.7880 C.3   433  INH433      0.2040
     20  C7         5.2160    6.8050   25.2800 C.3   433  INH433      0.2880
     21  O10        4.1930    7.5070   25.9700 O.3   433  INH433     -0.3490
     22  C11        4.1070    8.8650   25.5710 C.3   433  INH433      0.1800
     23  O8         4.4060    8.1440   21.9360 O.3   433  INH433     -0.3900
     24  H21        4.0140    8.9760   21.6980 H     433  INH433      0.2100
     25  O7         6.1620    6.2910   23.1820 O.3   433  INH433     -0.3880
     26  H20        6.9180    6.5760   23.6840 H     433  INH433      0.2100
     27  O6         5.2140    5.4470   25.6920 O.3   433  INH433     -0.3690
     28  H19        4.3190    5.1600   25.8300 H     433  INH433      0.2120
     29  C12        3.0230    9.5170   26.4340 C.3   433  INH433      0.1980
     30  O11        3.3240   10.8790   26.7300 O.3   433  INH433     -0.3980
     31  H22        3.8410   11.2490   26.0230 H     433  INH433      0.2090
@<TRIPOS>BOND
     1    12    11    1
     2     9     8    1
     3     9    10    1
     4    11     5    1
     5     8     4    1
     6     5     4    1
     7     5     6    1
     8    13    14    1
     9    13     6    1
    10     4     3    1
    11    24    23    1
    12     6     7    1
    13    23    18    1
    14     3     2    1
    15     7     2    1
    16     7    15    1
    17     2     1    1
    18    25    26    1
    19    25    19    1
    20    18    19    1
    21    18    17    1
    22    16    15    1
    23     1    17    1
    24    19    20    1
    25    17    22    1
    26    20    27    1
    27    20    21    1
    28    22    21    1
    29    22    29    1
    30    27    28    1
    31    31    30    1
    32    29    30    1
