@<TRIPOS>MOLECULE
/tmp/ewbell/vina_1z3t_1z3t_lig/vina/vina4.pdbqt
 31 32 0 0 0
SMALL
GASTEIGER

@<TRIPOS>ATOM
      1  O9         7.0570    2.2280   29.4050 O.3   433  INH433     -0.3480
      2  C1         7.4170    2.3870   28.0730 C.3   433  INH433      0.2920
      3  O4         7.2340    3.7880   27.7790 O.3   433  INH433     -0.3480
      4  C5         7.7300    4.0680   26.4840 C.3   433  INH433      0.1790
      5  C4         6.8110    3.3360   25.5090 C.3   433  INH433      0.1800
      6  C3         6.8670    1.8570   25.7260 C.3   433  INH433      0.1830
      7  C2         6.5190    1.4970   27.1550 C.3   433  INH433      0.2040
      8  C6         7.7220    5.5760   26.2990 C.3   433  INH433      0.1980
      9  O5         8.4500    5.9160   25.1620 O.3   433  INH433     -0.3980
     10  H11        8.1950    5.3530   24.4400 H     433  INH433      0.2090
     11  O3         7.2400    3.5850   24.1570 O.3   433  INH433     -0.3900
     12  H10        7.9980    4.1570   24.1640 H     433  INH433      0.2100
     13  O2         6.0520    1.1780   24.7370 O.3   433  INH433     -0.3900
     14  H9         6.6040    0.6290   24.1940 H     433  INH433      0.2100
     15  O1         6.6220    0.0480   27.3750 O.3   433  INH433     -0.3880
     16  H8         5.7740   -0.2950   27.6330 H     433  INH433      0.2100
     17  C10        8.0230    1.8550   30.3550 C.3   433  INH433      0.1870
     18  C9         8.7050    3.1190   30.9430 C.3   433  INH433      0.1830
     19  C8         9.5690    2.7410   32.0990 C.3   433  INH433      0.2040
     20  C7         8.7850    1.9110   33.0890 C.3   433  INH433      0.2880
     21  O10        8.2020    0.7730   32.4720 O.3   433  INH433     -0.3490
     22  C11        7.2940    1.1240   31.4410 C.3   433  INH433      0.1800
     23  O8         9.4980    3.7210   29.9520 O.3   433  INH433     -0.3900
     24  H21       10.3540    3.9230   30.3100 H     433  INH433      0.2100
     25  O7         9.8940    3.9650   32.7550 O.3   433  INH433     -0.3880
     26  H20        9.1540    4.5590   32.7020 H     433  INH433      0.2100
     27  O6         9.7140    1.4880   34.0740 O.3   433  INH433     -0.3690
     28  H19        9.5470    0.5790   34.2970 H     433  INH433      0.2120
     29  C12        6.6910   -0.1810   30.9140 C.3   433  INH433      0.1980
     30  O11        7.4680   -0.7400   29.8570 O.3   433  INH433     -0.3980
     31  H22        8.1680   -0.1390   29.6280 H     433  INH433      0.2090
@<TRIPOS>BOND
     1    11    12    1
     2    11     5    1
     3    14    13    1
     4    10     9    1
     5    13     6    1
     6     9     8    1
     7     5     6    1
     8     5     4    1
     9     6     7    1
    10     8     4    1
    11     4     3    1
    12     7    15    1
    13     7     2    1
    14    15    16    1
    15     3     2    1
    16     2     1    1
    17     1    17    1
    18    31    30    1
    19    30    29    1
    20    23    24    1
    21    23    18    1
    22    17    18    1
    23    17    22    1
    24    29    22    1
    25    18    19    1
    26    22    21    1
    27    19    25    1
    28    19    20    1
    29    21    20    1
    30    26    25    1
    31    20    27    1
    32    27    28    1
