@<TRIPOS>MOLECULE
/tmp/ewbell/vina_1z3t_1z3t_lig/vina/vina2.pdbqt
 31 32 0 0 0
SMALL
GASTEIGER

@<TRIPOS>ATOM
      1  O9         3.5880    9.4610   21.2590 O.3   433  INH433     -0.3480
      2  C1         3.5880    8.5970   22.3460 C.3   433  INH433      0.2920
      3  O4         3.6540    9.4370   23.5180 O.3   433  INH433     -0.3480
      4  C5         3.4980    8.6430   24.6780 C.3   433  INH433      0.1790
      5  C4         4.7400    7.7570   24.7570 C.3   433  INH433      0.1800
      6  C3         4.8280    6.8490   23.5720 C.3   433  INH433      0.1830
      7  C2         4.8160    7.6320   22.2760 C.3   433  INH433      0.2040
      8  C6         3.3530    9.5790   25.8660 C.3   433  INH433      0.1980
      9  O5         2.9780    8.8540   26.9950 O.3   433  INH433     -0.3980
     10  H11        3.3590    7.9840   26.9550 H     433  INH433      0.2090
     11  O3         4.6680    6.9230   25.9290 O.3   433  INH433     -0.3900
     12  H10        5.1920    6.1430   25.7960 H     433  INH433      0.2100
     13  O2         5.9660    5.9610   23.7080 O.3   433  INH433     -0.3900
     14  H9         6.2370    5.6580   22.8500 H     433  INH433      0.2100
     15  O1         4.8540    6.7340   21.1150 O.3   433  INH433     -0.3880
     16  H8         4.3580    5.9470   21.3050 H     433  INH433      0.2100
     17  C10        2.4440    9.5740   20.4510 C.3   433  INH433      0.1870
     18  C9         1.6430    8.2440   20.4770 C.3   433  INH433      0.1830
     19  C8         0.3250    8.4300   19.8030 C.3   433  INH433      0.2040
     20  C7        -0.3940    9.6280   20.3790 C.3   433  INH433      0.2880
     21  O10        0.4040   10.8010   20.3080 O.3   433  INH433     -0.3490
     22  C11        1.6130   10.6750   21.0380 C.3   433  INH433      0.1800
     23  O8         2.3710    7.2510   19.8020 O.3   433  INH433     -0.3900
     24  H21        3.2390    7.5790   19.5980 H     433  INH433      0.2100
     25  O7        -0.4490    7.2820   20.1450 O.3   433  INH433     -0.3880
     26  H20       -0.4870    7.1960   21.0900 H     433  INH433      0.2100
     27  O6        -1.5600    9.8060   19.5910 O.3   433  INH433     -0.3690
     28  H19       -1.4130    9.4490   18.7220 H     433  INH433      0.2120
     29  C12        2.3380   12.0200   20.9380 C.3   433  INH433      0.1980
     30  O11        3.3210   12.1730   21.9580 O.3   433  INH433     -0.3980
     31  H22        3.8890   11.4110   21.9670 H     433  INH433      0.2090
@<TRIPOS>BOND
     1    28    27    1
     2    27    20    1
     3    24    23    1
     4    23    18    1
     5    19    25    1
     6    19    20    1
     7    19    18    1
     8    25    26    1
     9    21    20    1
    10    21    22    1
    11    17    18    1
    12    17    22    1
    13    17     1    1
    14    29    22    1
    15    29    30    1
    16    15    16    1
    17    15     7    1
    18     1     2    1
    19    30    31    1
    20     7     2    1
    21     7     6    1
    22     2     3    1
    23    14    13    1
    24     3     4    1
    25     6    13    1
    26     6     5    1
    27     4     5    1
    28     4     8    1
    29     5    11    1
    30    12    11    1
    31     8     9    1
    32    10     9    1
