@<TRIPOS>MOLECULE
/tmp/ewbell/vina_1z3t_1z3t_lig/vina/vina5.pdbqt
 31 32 0 0 0
SMALL
GASTEIGER

@<TRIPOS>ATOM
      1  O9         1.9440   11.0450   22.3970 O.3   433  INH433     -0.3480
      2  C1         2.0950   12.4240   22.3250 C.3   433  INH433      0.2920
      3  O4         2.0260   12.8990   23.6870 O.3   433  INH433     -0.3480
      4  C5         2.3300   14.2800   23.7200 C.3   433  INH433      0.1790
      5  C4         1.1850   14.9860   22.9960 C.3   433  INH433      0.1800
      6  C3         1.1080   14.5540   21.5660 C.3   433  INH433      0.1830
      7  C2         0.9620   13.0520   21.4510 C.3   433  INH433      0.2040
      8  C6         2.4630   14.6920   25.1770 C.3   433  INH433      0.1980
      9  O5         3.4020   15.7140   25.2950 O.3   433  INH433     -0.3980
     10  H11        3.3670   16.0760   26.1740 H     433  INH433      0.2090
     11  O3         1.4100   16.4080   23.0010 O.3   433  INH433     -0.3900
     12  H10        1.1200   16.7730   23.8290 H     433  INH433      0.2100
     13  O2         0.0690   15.2970   20.8790 O.3   433  INH433     -0.3900
     14  H9         0.1710   15.1900   19.9410 H     433  INH433      0.2100
     15  O1         0.9340   12.6290   20.0450 O.3   433  INH433     -0.3880
     16  H8         1.6110   11.9790   19.8960 H     433  INH433      0.2100
     17  C10        2.9480   10.2000   21.8920 C.3   433  INH433      0.1870
     18  C9         4.0030    9.9120   22.9930 C.3   433  INH433      0.1830
     19  C8         4.9450    8.8510   22.5320 C.3   433  INH433      0.2040
     20  C7         4.1750    7.6450   22.0440 C.3   433  INH433      0.2880
     21  O10        3.2390    7.9950   21.0340 O.3   433  INH433     -0.3490
     22  C11        2.2720    8.9230   21.4950 C.3   433  INH433      0.1800
     23  O8         4.7260   11.0860   23.2600 O.3   433  INH433     -0.3900
     24  H21        4.2420   11.6240   23.8740 H     433  INH433      0.2100
     25  O7         5.6610    8.4390   23.6930 O.3   433  INH433     -0.3880
     26  H20        5.1310    8.5990   24.4660 H     433  INH433      0.2100
     27  O6         5.1380    6.7540   21.5030 O.3   433  INH433     -0.3690
     28  H19        5.6820    6.4130   22.2030 H     433  INH433      0.2120
     29  C12        1.2930    9.1580   20.3410 C.3   433  INH433      0.1980
     30  O11        0.0500    9.6880   20.7940 O.3   433  INH433     -0.3980
     31  H22       -0.6480    9.0740   20.5940 H     433  INH433      0.2090
@<TRIPOS>BOND
     1    16    15    1
     2    14    13    1
     3    15     7    1
     4    29    30    1
     5    29    22    1
     6    31    30    1
     7    13     6    1
     8    21    22    1
     9    21    20    1
    10     7     6    1
    11     7     2    1
    12    22    17    1
    13    27    20    1
    14    27    28    1
    15     6     5    1
    16    17     1    1
    17    17    18    1
    18    20    19    1
    19     2     1    1
    20     2     3    1
    21    19    18    1
    22    19    25    1
    23    18    23    1
    24     5    11    1
    25     5     4    1
    26    11    12    1
    27    23    24    1
    28     3     4    1
    29    25    26    1
    30     4     8    1
    31     8     9    1
    32     9    10    1
