@<TRIPOS>MOLECULE
./ligand/1u1w_lig.pdb
 17 17 0 0 0
SMALL
GASTEIGER

@<TRIPOS>ATOM
      1  O1         8.1600   30.2580   23.6940 O.co2 562  INH562     -0.2405
      2  C1         7.5910   31.1680   23.0520 C.2   562  INH562      0.3884
      3  O2         7.1890   32.2360   23.6110 O.co2 562  INH562     -0.2405
      4  C2         7.3090   31.0160   21.5910 C.ar  562  INH562      0.0873
      5  C3         6.7550   32.1210   20.9210 C.ar  562  INH562     -0.0456
      6  C4         6.4140   31.9890   19.5590 C.ar  562  INH562     -0.0574
      7  C5         6.6280   30.8120   18.8830 C.ar  562  INH562     -0.0183
      8  C6         7.1940   29.7280   19.5520 C.ar  562  INH562      0.1382
      9  O3         7.3980   28.5410   18.9400 O.3   562  INH562     -0.5049
     10  C7         7.5530   29.8180   20.9430 C.ar  562  INH562      0.0808
     11  N1         8.1880   28.6840   21.4980 N.pl3 562  INH562     -0.3545
     12  H1         6.5930   33.0580   21.4420 H     562  INH562      0.0626
     13  H2         5.9750   32.8310   19.0360 H     562  INH562      0.0619
     14  H3         6.3590   30.7270   17.8370 H     562  INH562      0.0655
     15  H4         7.1260   28.6020   18.0320 H     562  INH562      0.2922
     16  H5         8.4700   28.6850   22.4890 H     562  INH562      0.1424
     17  H6         8.3690   27.8570   20.9120 H     562  INH562      0.1424
@<TRIPOS>BOND
     1     1     2   ar
     2     2     4    1
     3     2     3   ar
     4     4    10   ar
     5     4     5   ar
     6     5    12    1
     7     5     6   ar
     8     6    13    1
     9     6     7   ar
    10     7    14    1
    11     7     8   ar
    12     8    10   ar
    13     8     9    1
    14     9    15    1
    15    10    11    1
    16    11    17    1
    17    11    16    1
