@<TRIPOS>MOLECULE
/tmp/ewbell/vina_1u1w_1u1w_lig/vina/vina3.pdbqt
 15 15 0 0 0
SMALL
GASTEIGER

@<TRIPOS>ATOM
      1  C2         6.9230   31.5690   20.6450 C.ar  562  INH562      0.0660
      2  C3         6.9130   30.6860   19.5520 C.ar  562  INH562      0.0210
      3  C4         7.2580   29.3350   19.7650 C.ar  562  INH562      0.0040
      4  C5         7.6150   28.8810   21.0120 C.ar  562  INH562      0.0390
      5  C6         7.6390   29.7690   22.0860 C.ar  562  INH562      0.0920
      6  C7         7.2900   31.1550   21.9140 C.ar  562  INH562      0.0760
      7  C1         6.4820   32.9770   20.3970 C.2   562  INH562      0.1780
      8  O1         7.0110   33.9330   21.0040 O.2   562  INH562     -0.6460
      9  O2         5.5230   33.1470   19.5810 O.3   562  INH562     -0.7730
     10  H          5.1310   33.9930   19.4890 H     562  INH562      0.1670
     11  N1         7.4230   31.9790   23.0540 N.pl3 562  INH562     -0.3960
     12  H6         6.6980   32.6780   23.2710 H     562  INH562      0.1560
     13  H5         8.2440   31.8800   23.6690 H     562  INH562      0.1560
     14  O3         7.9560   29.3670   23.3370 O.3   562  INH562     -0.3580
     15  H4         8.4070   28.5320   23.2960 H     562  INH562      0.2170
@<TRIPOS>BOND
     1    10     9    1
     2     2     3   ar
     3     2     1   ar
     4     9     7    1
     5     3     4   ar
     6     7     1    1
     7     7     8    2
     8     1     6   ar
     9     4     5   ar
    10     6     5   ar
    11     6    11    1
    12     5    14    1
    13    11    12    1
    14    11    13    1
    15    15    14    1
