@<TRIPOS>MOLECULE
/tmp/ewbell/vina_1u1w_1u1w_lig/vina/vina2.pdbqt
 15 15 0 0 0
SMALL
GASTEIGER

@<TRIPOS>ATOM
      1  C2         7.2950   30.6950   21.5740 C.ar  562  INH562      0.0660
      2  C3         7.3170   29.4020   21.0220 C.ar  562  INH562      0.0210
      3  C4         7.0990   29.2500   19.6370 C.ar  562  INH562      0.0040
      4  C5         6.8530   30.3360   18.8320 C.ar  562  INH562      0.0390
      5  C6         6.8160   31.6120   19.3920 C.ar  562  INH562      0.0920
      6  C7         7.0380   31.8130   20.8000 C.ar  562  INH562      0.0760
      7  C1         7.6020   30.8270   23.0320 C.2   562  INH562      0.1780
      8  O1         7.3150   31.8710   23.6570 O.2   562  INH562     -0.6460
      9  O2         8.2020   29.8540   23.5870 O.3   562  INH562     -0.7730
     10  H          7.7970   29.3980   24.2980 H     562  INH562      0.1670
     11  N1         6.9020   33.1390   21.2700 N.pl3 562  INH562     -0.3960
     12  H6         6.0950   33.7080   20.9790 H     562  INH562      0.1560
     13  H5         7.6110   33.5360   21.9040 H     562  INH562      0.1560
     14  O3         6.6070   32.7150   18.6390 O.3   562  INH562     -0.3580
     15  H4         5.8110   33.1470   18.9250 H     562  INH562      0.2170
@<TRIPOS>BOND
     1    14    15    1
     2    14     5    1
     3     4     5   ar
     4     4     3   ar
     5     5     6   ar
     6     3     2   ar
     7     6    11    1
     8     6     1   ar
     9    12    11    1
    10     2     1   ar
    11    11    13    1
    12     1     7    1
    13     7     9    1
    14     7     8    2
    15     9    10    1
