@<TRIPOS>MOLECULE
/tmp/ewbell/vina_1u1w_1u1w_lig/vina/vina4.pdbqt
 15 15 0 0 0
SMALL
GASTEIGER

@<TRIPOS>ATOM
      1  C2        14.7720   20.5810    8.5450 C.ar  562  INH562      0.0660
      2  C3        13.4400   20.6990    8.1100 C.ar  562  INH562      0.0210
      3  C4        13.0080   21.9260    7.5670 C.ar  562  INH562      0.0040
      4  C5        13.8590   23.0010    7.4720 C.ar  562  INH562      0.0390
      5  C6        15.1730   22.8790    7.9220 C.ar  562  INH562      0.0920
      6  C7        15.6560   21.6430    8.4790 C.ar  562  INH562      0.0760
      7  C1        15.2160   19.2450    9.0480 C.2   562  INH562      0.1780
      8  O1        16.3810   18.8380    8.8480 O.2   562  INH562     -0.6460
      9  O2        14.3480   18.5330    9.6450 O.3   562  INH562     -0.7730
     10  H         14.1260   18.7150   10.5370 H     562  INH562      0.1670
     11  N1        16.9810   21.6570    8.9720 N.pl3 562  INH562     -0.3960
     12  H6        17.6270   20.8920    8.7330 H     562  INH562      0.1560
     13  H5        17.2990   22.4330    9.5700 H     562  INH562      0.1560
     14  O3        16.0560   23.8970    7.8240 O.3   562  INH562     -0.3580
     15  H4        15.8000   24.4710    7.1120 H     562  INH562      0.2170
@<TRIPOS>BOND
     1    15    14    1
     2     4     3   ar
     3     4     5   ar
     4     3     2   ar
     5    14     5    1
     6     5     6   ar
     7     2     1   ar
     8     6     1   ar
     9     6    11    1
    10     1     7    1
    11    12    11    1
    12     8     7    2
    13    11    13    1
    14     7     9    1
    15     9    10    1
