@<TRIPOS>MOLECULE
/tmp/ewbell/vina_1u1w_1u1w_lig/vina/vina5.pdbqt
 15 15 0 0 0
SMALL
GASTEIGER

@<TRIPOS>ATOM
      1  C2         8.0170   20.0890   13.9040 C.ar  562  INH562      0.0660
      2  C3         7.5540   21.3710   13.5570 C.ar  562  INH562      0.0210
      3  C4         7.4990   21.7270   12.1930 C.ar  562  INH562      0.0040
      4  C5         7.9030   20.8530   11.2130 C.ar  562  INH562      0.0390
      5  C6         8.3770   19.5910   11.5690 C.ar  562  INH562      0.0920
      6  C7         8.4450   19.1850   12.9490 C.ar  562  INH562      0.0760
      7  C1         7.9920   19.7190   15.3530 C.2   562  INH562      0.1780
      8  O1         7.4820   18.6420   15.7320 O.2   562  INH562     -0.6460
      9  O2         8.4700   20.5630   16.1750 O.3   562  INH562     -0.7730
     10  H          7.9410   21.2750   16.4750 H     562  INH562      0.1670
     11  N1         9.0120   17.9150   13.1980 N.pl3 562  INH562     -0.3960
     12  H6         8.6800   17.0920   12.6750 H     562  INH562      0.1560
     13  H5         9.7570   17.8120   13.9020 H     562  INH562      0.1560
     14  O3         8.7580   18.6860   10.6420 O.3   562  INH562     -0.3580
     15  H4         8.6760   17.8100   11.0020 H     562  INH562      0.2170
@<TRIPOS>BOND
     1    14    15    1
     2    14     5    1
     3     4     5   ar
     4     4     3   ar
     5     5     6   ar
     6     3     2   ar
     7    12    11    1
     8     6    11    1
     9     6     1   ar
    10    11    13    1
    11     2     1   ar
    12     1     7    1
    13     7     8    2
    14     7     9    1
    15     9    10    1
