@<TRIPOS>MOLECULE
/tmp/ewbell/vina_1u1w_1u1w_lig/vina/vina1.pdbqt
 15 15 0 0 0
SMALL
GASTEIGER

@<TRIPOS>ATOM
      1  C2         7.3050   30.7940   21.5760 C.ar  562  INH562      0.0660
      2  C3         6.8000   31.9390   20.9350 C.ar  562  INH562      0.0210
      3  C4         6.4790   31.8650   19.5640 C.ar  562  INH562      0.0040
      4  C5         6.6660   30.7050   18.8520 C.ar  562  INH562      0.0390
      5  C6         7.1840   29.5800   19.4920 C.ar  562  INH562      0.0920
      6  C7         7.5210   29.6110   20.8910 C.ar  562  INH562      0.0760
      7  C1         7.5660   30.8880   23.0460 C.2   562  INH562      0.1780
      8  O1         7.2750   31.9220   23.6850 O.2   562  INH562     -0.6460
      9  O2         8.1310   29.8920   23.5980 O.3   562  INH562     -0.7730
     10  H          8.5870   29.2630   23.0740 H     562  INH562      0.1670
     11  N1         8.1080   28.4390   21.4180 N.pl3 562  INH562     -0.3960
     12  H6         8.5700   28.4620   22.3370 H     562  INH562      0.1560
     13  H5         8.0730   27.5600   20.8820 H     562  INH562      0.1560
     14  O3         7.3590   28.4080   18.8440 O.3   562  INH562     -0.3580
     15  H4         7.8490   28.5590   18.0440 H     562  INH562      0.2170
@<TRIPOS>BOND
     1    15    14    1
     2    14     5    1
     3     4     5   ar
     4     4     3   ar
     5     5     6   ar
     6     3     2   ar
     7    13    11    1
     8     6    11    1
     9     6     1   ar
    10     2     1   ar
    11    11    12    1
    12     1     7    1
    13     7     9    1
    14     7     8    2
    15    10     9    1
