@<TRIPOS>MOLECULE
./ligand/2rkd_lig.pdb
 13 12 0 0 0
SMALL
GASTEIGER

@<TRIPOS>ATOM
      1  C1         0.5060   -4.5950    9.2440 C.3   621  INH621      0.0114
      2  C2         1.8000   -5.4000    9.3800 C.3   621  INH621      0.0557
      3  P1         0.3370   -3.4350   10.6330 P.3   621  INH621      0.1090
      4  C3         2.3480   -5.8140    8.0330 C.2   621  INH621      0.3564
      5  O1         2.8940   -6.9410    7.9170 O.co2 621  INH621     -0.2464
      6  O2         2.2400   -4.9970    7.0910 O.co2 621  INH621     -0.2464
      7  O3         1.6770   -2.7350   10.7520 O.3   621  INH621     -0.3575
      8  O4        -0.8070   -2.5360   10.2220 O.3   621  INH621     -0.3575
      9  O5         0.0040   -4.3000   11.8240 O.2   621  INH621     -0.4607
     10  H1         0.5270   -4.0300    8.3000 H     621  INH621      0.0346
     11  H2        -0.3510   -5.2840    9.2400 H     621  INH621      0.0346
     12  H3         1.5970   -6.3030    9.9740 H     621  INH621      0.0383
     13  H4         2.5510   -4.7830    9.8950 H     621  INH621      0.0383
@<TRIPOS>BOND
     1     1    11    1
     2     1    10    1
     3     1     3    1
     4     1     2    1
     5     2    13    1
     6     2    12    1
     7     2     4    1
     8     3     9    2
     9     3     8    1
    10     3     7    1
    11     4     6   ar
    12     4     5   ar
