@<TRIPOS>MOLECULE
/tmp/ewbell/vina_2rkd_2rkd_lig/vina/vina5.pdbqt
 12 11 0 0 0
SMALL
GASTEIGER

@<TRIPOS>ATOM
      1  C1        -4.0220   -4.8170   18.9840 C.3   621  INH621      0.1350
      2  P1        -4.4230   -5.9140   20.3770 P.3   621  INH621      0.2360
      3  O5        -5.8340   -6.3810   20.1110 O.2   621  INH621     -0.6530
      4  O4        -4.3200   -5.0180   21.5900 O.3   621  INH621     -0.3290
      5  H         -5.1200   -5.1130   22.1310 H     621  INH621      0.2200
      6  O3        -3.4000   -7.0320   20.3300 O.3   621  INH621     -0.3290
      7  H         -3.0380   -7.1030   19.4330 H     621  INH621      0.2200
      8  C2        -3.0740   -3.7060   19.4400 C.3   621  INH621      0.1210
      9  C3        -3.4750   -2.3600   18.8800 C.2   621  INH621      0.1390
     10  O2        -2.5890   -1.4790   18.8050 O.2   621  INH621     -0.6500
     11  O1        -4.6630   -2.1860   18.5040 O.3   621  INH621     -0.7760
     12  H         -5.1020   -2.8530   18.0150 H     621  INH621      0.1670
@<TRIPOS>BOND
     1    12    11    1
     2    11     9    1
     3    10     9    2
     4     9     8    1
     5     1     8    1
     6     1     2    1
     7     7     6    1
     8     3     2    2
     9     6     2    1
    10     2     4    1
    11     4     5    1
