@<TRIPOS>MOLECULE
/tmp/ewbell/vina_2rkd_2rkd_lig/vina/vina2.pdbqt
 12 11 0 0 0
SMALL
GASTEIGER

@<TRIPOS>ATOM
      1  C1        -2.5420   -3.8560   12.7460 C.3   621  INH621      0.1350
      2  P1        -4.2160   -3.4770   12.1470 P.3   621  INH621      0.2360
      3  O5        -5.1400   -4.2430   13.0640 O.2   621  INH621     -0.6530
      4  O4        -4.2260   -4.0040   10.7300 O.3   621  INH621     -0.3290
      5  H         -4.7950   -4.7880   10.6810 H     621  INH621      0.2200
      6  O3        -4.3650   -1.9720   12.2610 O.3   621  INH621     -0.3290
      7  H         -5.2710   -1.7180   12.0280 H     621  INH621      0.2200
      8  C2        -1.5460   -2.8150   12.2320 C.3   621  INH621      0.1210
      9  C3        -0.9180   -3.2370   10.9230 C.2   621  INH621      0.1390
     10  O2         0.1260   -3.9250   10.9800 O.2   621  INH621     -0.6500
     11  O1        -1.4680   -2.8960    9.8440 O.3   621  INH621     -0.7760
     12  H         -0.9840   -2.4120    9.2050 H     621  INH621      0.1670
@<TRIPOS>BOND
     1    12    11    1
     2    11     9    1
     3     5     4    1
     4     4     2    1
     5     9    10    2
     6     9     8    1
     7     7     6    1
     8     2     6    1
     9     2     1    1
    10     2     3    2
    11     8     1    1
