@<TRIPOS>MOLECULE
/tmp/ewbell/vina_2rkd_2rkd_lig/vina/vina1.pdbqt
 12 11 0 0 0
SMALL
GASTEIGER

@<TRIPOS>ATOM
      1  C1        -2.5910   -3.5780   17.9610 C.3   621  INH621      0.1350
      2  P1        -3.4840   -2.0040   17.7890 P.3   621  INH621      0.2360
      3  O5        -2.5450   -0.9610   18.3440 O.2   621  INH621     -0.6530
      4  O4        -4.7210   -2.1900   18.6380 O.3   621  INH621     -0.3290
      5  H         -4.5890   -1.7650   19.5000 H     621  INH621      0.2200
      6  O3        -3.7560   -1.8430   16.3060 O.3   621  INH621     -0.3290
      7  H         -3.9750   -2.7060   15.9210 H     621  INH621      0.2200
      8  C2        -3.5800   -4.7320   18.1340 C.3   621  INH621      0.1210
      9  C3        -3.9290   -5.3750   16.8110 C.2   621  INH621      0.1390
     10  O2        -3.4620   -4.8530   15.7740 O.2   621  INH621     -0.6500
     11  O1        -4.6560   -6.4020   16.8060 O.3   621  INH621     -0.7760
     12  H         -5.0190   -6.7230   17.6070 H     621  INH621      0.1670
@<TRIPOS>BOND
     1    10     9    2
     2     7     6    1
     3     6     2    1
     4    11     9    1
     5    11    12    1
     6     9     8    1
     7     2     1    1
     8     2     3    2
     9     2     4    1
    10     1     8    1
    11     4     5    1
