@<TRIPOS>MOLECULE
/tmp/ewbell/vina_2rkd_2rkd_lig/vina/vina3.pdbqt
 12 11 0 0 0
SMALL
GASTEIGER

@<TRIPOS>ATOM
      1  C1        -3.7000   -4.5840   19.5500 C.3   621  INH621      0.1350
      2  P1        -4.4530   -6.0070   20.3930 P.3   621  INH621      0.2360
      3  O5        -5.6820   -6.3360   19.5790 O.2   621  INH621     -0.6530
      4  O4        -4.7860   -5.4830   21.7710 O.3   621  INH621     -0.3290
      5  H         -4.2740   -4.6770   21.9430 H     621  INH621      0.2200
      6  O3        -3.4050   -7.1030   20.3710 O.3   621  INH621     -0.3290
      7  H         -3.7900   -7.9120   20.0000 H     621  INH621      0.2200
      8  C2        -2.8150   -5.0590   18.3960 C.3   621  INH621      0.1210
      9  C3        -3.5640   -5.0740   17.0830 C.2   621  INH621      0.1390
     10  O2        -3.4400   -4.0770   16.3360 O.2   621  INH621     -0.6500
     11  O1        -4.2630   -6.0780   16.7910 O.3   621  INH621     -0.7760
     12  H         -4.4460   -6.7260   17.4420 H     621  INH621      0.1670
@<TRIPOS>BOND
     1    10     9    2
     2    11     9    1
     3    11    12    1
     4     9     8    1
     5     8     1    1
     6     1     2    1
     7     3     2    2
     8     7     6    1
     9     6     2    1
    10     2     4    1
    11     4     5    1
