@<TRIPOS>MOLECULE
/tmp/ewbell/vina_2rkd_2rkd_lig/vina/vina4.pdbqt
 12 11 0 0 0
SMALL
GASTEIGER

@<TRIPOS>ATOM
      1  C1        -2.3790   -3.4200   17.7730 C.3   621  INH621      0.1350
      2  P1        -3.4170   -1.9300   17.7070 P.3   621  INH621      0.2360
      3  O5        -3.7680   -1.7640   16.2480 O.2   621  INH621     -0.6530
      4  O4        -2.5150   -0.8310   18.2220 O.3   621  INH621     -0.3290
      5  H         -2.5700   -0.7940   19.1890 H     621  INH621      0.2200
      6  O3        -4.6170   -2.2230   18.5870 O.3   621  INH621     -0.3290
      7  H         -4.3160   -2.5770   19.4380 H     621  INH621      0.2200
      8  C2        -3.2520   -4.6690   17.9120 C.3   621  INH621      0.1210
      9  C3        -3.7630   -5.1480   16.5730 C.2   621  INH621      0.1390
     10  O2        -4.7110   -5.9650   16.5760 O.2   621  INH621     -0.6500
     11  O1        -3.2320   -4.7030   15.5220 O.3   621  INH621     -0.7760
     12  H         -3.7700   -4.3900   14.8220 H     621  INH621      0.1670
@<TRIPOS>BOND
     1    12    11    1
     2    11     9    1
     3     3     2    2
     4     9    10    2
     5     9     8    1
     6     2     1    1
     7     2     4    1
     8     2     6    1
     9     1     8    1
    10     4     5    1
    11     6     7    1
