@<TRIPOS>MOLECULE
./ligand/1r5y_lig.pdb
 22 23 0 0 0
SMALL
GASTEIGER

@<TRIPOS>ATOM
      1  C1        18.2500   16.9450   19.2760 C.ar  371  INH371      0.0254
      2  N1        19.2200   17.3220   18.2010 N.pl3 371  INH371     -0.3579
      3  C2        16.9740   16.5060   18.9080 C.ar  371  INH371     -0.0393
      4  C3        16.0290   16.2140   19.8680 C.ar  371  INH371     -0.0383
      5  C4        16.3140   16.4910   21.2240 C.ar  371  INH371      0.0420
      6  N2        15.3500   16.3200   22.1950 N.pl3 371  INH371     -0.3066
      7  C5        15.5880   16.5350   23.4610 C.3   371  INH371      0.2065
      8  N3        14.6290   16.3330   24.4490 N.3   371  INH371     -0.2905
      9  N4        16.8210   17.0520   23.9220 N.am  371  INH371     -0.2741
     10  C6        17.8280   17.3260   22.9730 C.2   371  INH371      0.2485
     11  O1        18.9640   17.6720   23.3330 O.2   371  INH371     -0.2700
     12  C7        17.5640   17.0440   21.5690 C.ar  371  INH371      0.0594
     13  C8        18.5000   17.3140   20.5770 C.ar  371  INH371     -0.0271
     14  H1        19.0390   17.0490   17.2250 H     371  INH371      0.1423
     15  H2        20.0690   17.8550   18.4370 H     371  INH371      0.1423
     16  H3        16.7260   16.3940   17.8590 H     371  INH371      0.0636
     17  H4        15.0780   15.7770   19.5860 H     371  INH371      0.0637
     18  H5        13.7030   15.9590   24.1990 H     371  INH371      0.1219
     19  H6        14.8460   16.5580   25.4310 H     371  INH371      0.1219
     20  H7        16.9750   17.2190   24.8960 H     371  INH371      0.1525
     21  H8        19.4270   17.8160   20.8290 H     371  INH371      0.0644
     22  H9        14.4090   16.0120   21.9120 H     371  INH371      0.1495
@<TRIPOS>BOND
     1     1    13   ar
     2     1     3   ar
     3     1     2    1
     4     2    15    1
     5     2    14    1
     6     3    16    1
     7     3     4   ar
     8     4    17    1
     9     4     5   ar
    10     5    12   ar
    11     5     6    1
    12     6    22    1
    13     6     7    1
    14     7     9    1
    15     7     8    1
    16     8    19    1
    17     8    18    1
    18     9    20    1
    19     9    10   am
    20    10    12    1
    21    10    11    2
    22    12    13   ar
    23    13    21    1
