@<TRIPOS>MOLECULE
/tmp/ewbell/vina_1r5y_1r5y_lig/vina/vina3.pdbqt
 19 20 0 0 0
SMALL
GASTEIGER

@<TRIPOS>ATOM
      1  C1        18.0570   16.8000   19.3580 C.ar  371  INH371      0.0260
      2  C2        17.3250   16.4020   20.4820 C.ar  371  INH371      0.0310
      3  C3        15.9620   16.2130   20.4000 C.ar  371  INH371      0.0390
      4  C4        15.3290   16.2930   19.1390 C.ar  371  INH371      0.1370
      5  N2        13.9890   15.9950   19.0040 N.pl3 371  INH371     -0.0500
      6  C5        13.3650   16.0890   17.8610 C.3   371  INH371      0.7550
      7  N3        12.0060   15.8210   17.7260 N.3   371  INH371     -0.3870
      8  N4        14.0340   16.4090   16.6570 N.am  371  INH371     -0.3120
      9  C6        15.4230   16.6490   16.7070 C.2   371  INH371      0.2560
     10  O1        16.0370   17.0430   15.7040 O.2   371  INH371     -0.2670
     11  C7        16.1000   16.5800   17.9950 C.ar  371  INH371      0.0670
     12  C8        17.4710   16.7790   18.1140 C.ar  371  INH371      0.0480
     13  H5        11.4430   15.5800   18.5540 H     371  INH371      0.1530
     14  H6        11.5630   15.8650   16.7960 H     371  INH371      0.1530
     15  H7        13.5350   16.4630   15.7920 H     371  INH371      0.1660
     16  H9        13.4630   15.6870   19.8340 H     371  INH371      0.2710
     17  N1        19.5440   16.9220   19.4730 N.pl3 371  INH371     -0.3990
     18  H2        20.1210   17.0060   18.6240 H     371  INH371      0.1560
     19  H1        19.9910   16.9200   20.4010 H     371  INH371      0.1560
@<TRIPOS>BOND
     1    10     9    2
     2    15     8    1
     3     8     9   am
     4     8     6    1
     5     9    11    1
     6    14     7    1
     7     7     6    1
     8     7    13    1
     9     6     5    1
    10    11    12   ar
    11    11     4   ar
    12    12     1   ar
    13    18    17    1
    14     5     4    1
    15     5    16    1
    16     4     3   ar
    17     1    17    1
    18     1     2   ar
    19    17    19    1
    20     3     2   ar
