@<TRIPOS>MOLECULE
/tmp/ewbell/vina_1r5y_1r5y_lig/vina/vina2.pdbqt
 19 20 0 0 0
SMALL
GASTEIGER

@<TRIPOS>ATOM
      1  C1        16.1220   16.5020   23.0510 C.ar  371  INH371      0.0260
      2  C2        17.4360   16.9220   23.2810 C.ar  371  INH371      0.0310
      3  C3        18.3270   17.0400   22.2360 C.ar  371  INH371      0.0390
      4  C4        17.8660   16.8640   20.9120 C.ar  371  INH371      0.1370
      5  N2        18.7040   17.0890   19.8400 N.pl3 371  INH371     -0.0500
      6  C5        18.3210   16.9050   18.6040 C.3   371  INH371      0.7550
      7  N3        19.1710   17.0980   17.5200 N.3   371  INH371     -0.3870
      8  N4        16.9930   16.5550   18.2680 N.am  371  INH371     -0.3120
      9  C6        16.0600   16.3860   19.3120 C.2   371  INH371      0.2560
     10  O1        14.9150   15.9700   19.0810 O.2   371  INH371     -0.2670
     11  C7        16.5090   16.5550   20.6870 C.ar  371  INH371      0.0670
     12  C8        15.6400   16.4290   21.7650 C.ar  371  INH371      0.0480
     13  H5        20.1560   17.3550   17.6760 H     371  INH371      0.1530
     14  H6        18.8150   16.9850   16.5590 H     371  INH371      0.1530
     15  H7        16.7220   16.4310   17.3130 H     371  INH371      0.1660
     16  H9        19.6640   17.4130   20.0190 H     371  INH371      0.2710
     17  N1        15.1670   16.4590   24.2020 N.pl3 371  INH371     -0.3990
     18  H2        15.0020   15.5740   24.7020 H     371  INH371      0.1560
     19  H1        14.6750   17.3140   24.4950 H     371  INH371      0.1560
@<TRIPOS>BOND
     1    14     7    1
     2    15     8    1
     3     7    13    1
     4     7     6    1
     5     8     6    1
     6     8     9   am
     7     6     5    1
     8    10     9    2
     9     9    11    1
    10     5    16    1
    11     5     4    1
    12    11     4   ar
    13    11    12   ar
    14     4     3   ar
    15    12     1   ar
    16     3     2   ar
    17     1     2   ar
    18     1    17    1
    19    17    19    1
    20    17    18    1
