@<TRIPOS>MOLECULE
/tmp/ewbell/vina_1r5y_1r5y_lig/vina/vina5.pdbqt
 19 20 0 0 0
SMALL
GASTEIGER

@<TRIPOS>ATOM
      1  C1        12.9130   16.0740   17.1300 C.ar  371  INH371      0.0260
      2  C2        13.5350   16.3130   15.9010 C.ar  371  INH371      0.0310
      3  C3        14.8660   16.6670   15.8450 C.ar  371  INH371      0.0390
      4  C4        15.6330   16.6550   17.0320 C.ar  371  INH371      0.1370
      5  N2        16.9910   16.8910   16.9940 N.pl3 371  INH371     -0.0500
      6  C5        17.7260   16.9200   18.0740 C.3   371  INH371      0.7550
      7  N3        19.0910   17.1900   18.0450 N.3   371  INH371     -0.3870
      8  N4        17.2030   16.6170   19.3520 N.am  371  INH371     -0.3120
      9  C6        15.8360   16.2880   19.4550 C.2   371  INH371      0.2560
     10  O1        15.3020   16.1250   20.5640 O.2   371  INH371     -0.2670
     11  C7        15.0190   16.2980   18.2490 C.ar  371  INH371      0.0670
     12  C8        13.6710   15.9590   18.2720 C.ar  371  INH371      0.0480
     13  H5        19.5510   17.4210   17.1540 H     371  INH371      0.1530
     14  H6        19.6400   17.1590   18.9160 H     371  INH371      0.1530
     15  H7        17.7890   16.6340   20.1630 H     371  INH371      0.1660
     16  H9        17.4430   17.0500   16.0820 H     371  INH371      0.2710
     17  N1        11.4880   15.6190   17.1400 N.pl3 371  INH371     -0.3990
     18  H2        10.8820   15.8040   16.3280 H     371  INH371      0.1560
     19  H1        11.1120   15.1210   17.9590 H     371  INH371      0.1560
@<TRIPOS>BOND
     1     3     2   ar
     2     3     4   ar
     3     2     1   ar
     4    16     5    1
     5    18    17    1
     6     5     4    1
     7     5     6    1
     8     4    11   ar
     9     1    17    1
    10     1    12   ar
    11    17    19    1
    12    13     7    1
    13     7     6    1
    14     7    14    1
    15     6     8    1
    16    11    12   ar
    17    11     9    1
    18     8     9   am
    19     8    15    1
    20     9    10    2
