@<TRIPOS>MOLECULE
/tmp/ewbell/vina_1r5y_1r5y_lig/vina/vina4.pdbqt
 19 20 0 0 0
SMALL
GASTEIGER

@<TRIPOS>ATOM
      1  C1        13.7820   16.2120   17.9570 C.ar  371  INH371      0.0260
      2  C2        14.5970   16.3120   16.8250 C.ar  371  INH371      0.0310
      3  C3        15.9470   16.5640   16.9520 C.ar  371  INH371      0.0390
      4  C4        16.5260   16.5880   18.2410 C.ar  371  INH371      0.1370
      5  N2        17.8890   16.7220   18.3970 N.pl3 371  INH371     -0.0500
      6  C5        18.4550   16.7800   19.5730 C.3   371  INH371      0.7550
      7  N3        19.8270   16.9470   19.7370 N.3   371  INH371     -0.3870
      8  N4        17.7260   16.6120   20.7730 N.am  371  INH371     -0.3120
      9  C6        16.3350   16.3920   20.6850 C.2   371  INH371      0.2560
     10  O1        15.6320   16.3520   21.7060 O.2   371  INH371     -0.2670
     11  C7        15.7100   16.3690   19.3700 C.ar  371  INH371      0.0670
     12  C8        14.3500   16.1310   19.2070 C.ar  371  INH371      0.0480
     13  H5        20.4320   17.0760   18.9140 H     371  INH371      0.1530
     14  H6        20.2360   16.9430   20.6830 H     371  INH371      0.1530
     15  H7        18.1840   16.6500   21.6610 H     371  INH371      0.1660
     16  H9        18.4830   16.7780   17.5570 H     371  INH371      0.2710
     17  N1        12.3390   15.8630   17.7770 N.pl3 371  INH371     -0.3990
     18  H2        11.7840   15.5350   18.5800 H     371  INH371      0.1560
     19  H1        11.8990   15.9510   16.8500 H     371  INH371      0.1560
@<TRIPOS>BOND
     1     2     3   ar
     2     2     1   ar
     3    19    17    1
     4     3     4   ar
     5    16     5    1
     6    17     1    1
     7    17    18    1
     8     1    12   ar
     9     4     5    1
    10     4    11   ar
    11     5     6    1
    12    13     7    1
    13    12    11   ar
    14    11     9    1
    15     6     7    1
    16     6     8    1
    17     7    14    1
    18     9     8   am
    19     9    10    2
    20     8    15    1
