@<TRIPOS>MOLECULE
/tmp/ewbell/vina_1r5y_1r5y_lig/vina/vina1.pdbqt
 19 20 0 0 0
SMALL
GASTEIGER

@<TRIPOS>ATOM
      1  C1        18.2820   16.7230   19.2620 C.ar  371  INH371      0.0260
      2  C2        16.9750   16.4390   18.8540 C.ar  371  INH371      0.0310
      3  C3        15.9740   16.2540   19.7850 C.ar  371  INH371      0.0390
      4  C4        16.2500   16.4880   21.1510 C.ar  371  INH371      0.1370
      5  N2        15.2450   16.4260   22.0920 N.pl3 371  INH371     -0.0500
      6  C5        15.4700   16.6040   23.3660 C.3   371  INH371      0.7550
      7  N3        14.4650   16.5110   24.3250 N.3   371  INH371     -0.3870
      8  N4        16.7410   16.9710   23.8670 N.am  371  INH371     -0.3120
      9  C6        17.8000   17.1300   22.9490 C.2   371  INH371      0.2560
     10  O1        18.9580   17.3380   23.3440 O.2   371  INH371     -0.2670
     11  C7        17.5460   16.8890   21.5360 C.ar  371  INH371      0.0670
     12  C8        18.5360   17.0530   20.5730 C.ar  371  INH371      0.0480
     13  H5        13.5090   16.2490   24.0460 H     371  INH371      0.1530
     14  H6        14.6780   16.7030   25.3150 H     371  INH371      0.1530
     15  H7        16.8850   17.1130   24.8460 H     371  INH371      0.1660
     16  H9        14.2830   16.2320   21.7800 H     371  INH371      0.2710
     17  N1        19.3200   16.9900   18.2190 N.pl3 371  INH371     -0.3990
     18  H2        20.2680   16.6000   18.3240 H     371  INH371      0.1560
     19  H1        19.0880   17.5630   17.3950 H     371  INH371      0.1560
@<TRIPOS>BOND
     1    19    17    1
     2    17    18    1
     3    17     1    1
     4     2     1   ar
     5     2     3   ar
     6     1    12   ar
     7     3     4   ar
     8    12    11   ar
     9     4    11   ar
    10     4     5    1
    11    11     9    1
    12    16     5    1
    13     5     6    1
    14     9    10    2
    15     9     8   am
    16     6     8    1
    17     6     7    1
    18     8    15    1
    19    13     7    1
    20     7    14    1
