@<TRIPOS>MOLECULE
./ligand/1a8i_lig.pdb
 29 30 0 0 0
SMALL
GASTEIGER

@<TRIPOS>ATOM
      1  C1        33.9450   22.8240   27.5750 C.3   1639  INH1639     0.2443
      2  C2        33.9200   23.1700   26.0400 C.3   1639  INH1639     0.1380
      3  O1        33.8830   24.5890   25.9230 O.3   1639  INH1639    -0.3840
      4  C3        32.6290   22.5860   25.3820 C.3   1639  INH1639     0.1141
      5  O2        32.8930   22.6750   23.9970 O.3   1639  INH1639    -0.3864
      6  C4        32.5680   21.1140   25.7580 C.3   1639  INH1639     0.1119
      7  O3        31.4440   20.5260   25.1190 O.3   1639  INH1639    -0.3865
      8  C5        32.5400   20.8780   27.2650 C.3   1639  INH1639     0.1131
      9  C6        32.3740   19.4390   27.7160 C.3   1639  INH1639     0.0730
     10  O4        33.4340   18.6670   27.1410 O.3   1639  INH1639    -0.3924
     11  O5        33.6860   21.4360   27.8970 O.3   1639  INH1639    -0.3376
     12  N1        35.2410   23.1500   28.1480 N.am  1639  INH1639    -0.2615
     13  C7        35.0630   23.9880   29.1750 C.2   1639  INH1639     0.3085
     14  O6        36.0200   24.4190   29.8700 O.2   1639  INH1639    -0.2523
     15  N2        33.8110   24.3560   29.4310 N.am  1639  INH1639    -0.2362
     16  C8        33.0600   23.6720   28.4970 C.2   1639  INH1639     0.2740
     17  O7        31.8440   23.7720   28.4710 O.2   1639  INH1639    -0.2702
     18  H1        34.8140   22.7640   25.5430 H     1639  INH1639     0.0672
     19  H2        33.1060   24.9230   26.3570 H     1639  INH1639     0.2101
     20  H3        31.7160   23.1250   25.6760 H     1639  INH1639     0.0648
     21  H4        32.9350   23.5890   23.7410 H     1639  INH1639     0.2100
     22  H5        33.4760   20.6300   25.3690 H     1639  INH1639     0.0647
     23  H6        31.3960   19.6050   25.3470 H     1639  INH1639     0.2100
     24  H7        31.6610   21.4230   27.6400 H     1639  INH1639     0.0647
     25  H8        31.4030   19.0510   27.3750 H     1639  INH1639     0.0584
     26  H9        32.4260   19.3840   28.8130 H     1639  INH1639     0.0584
     27  H10       33.3850   18.7180   26.1930 H     1639  INH1639     0.2095
     28  H11       36.1220   22.8040   27.8260 H     1639  INH1639     0.1535
     29  H12       33.4880   24.9850   30.1380 H     1639  INH1639     0.1592
@<TRIPOS>BOND
     1    21     5    1
     2     5     4    1
     3     7    23    1
     4     7     6    1
     5    22     6    1
     6     4    20    1
     7     4     6    1
     8     4     2    1
     9    18     2    1
    10     6     8    1
    11     3     2    1
    12     3    19    1
    13     2     1    1
    14    27    10    1
    15    10     9    1
    16     8    24    1
    17     8     9    1
    18     8    11    1
    19    25     9    1
    20     1    11    1
    21     1    12    1
    22     1    16    1
    23     9    26    1
    24    28    12    1
    25    12    13   am
    26    17    16    2
    27    16    15   am
    28    13    15   am
    29    13    14    2
    30    15    29    1
