@<TRIPOS>MOLECULE
/tmp/ewbell/vina_1a8i_1a8i_lig/vina/vina3.pdbqt
 23 24 0 0 0
SMALL
GASTEIGER

@<TRIPOS>ATOM
      1  C1        31.7150   21.4300   26.7350 C.3   1639  INH1639     0.2500
      2  C2        32.2810   21.7040   25.2930 C.3   1639  INH1639     0.2150
      3  C3        33.5530   22.6070   25.3820 C.3   1639  INH1639     0.1830
      4  C4        33.1760   23.8210   26.2160 C.3   1639  INH1639     0.1800
      5  C5        32.6910   23.4610   27.6170 C.3   1639  INH1639     0.1800
      6  O5        31.5560   22.6050   27.5670 O.3   1639  INH1639    -0.3400
      7  N1        30.4080   20.7960   26.6560 N.am  1639  INH1639    -0.3000
      8  C7        30.4410   19.6470   27.3390 C.2   1639  INH1639     0.3250
      9  O6        29.4350   18.9000   27.4550 O.2   1639  INH1639    -0.2470
     10  N2        31.6040   19.3210   27.8970 N.am  1639  INH1639    -0.2750
     11  C8        32.4370   20.3740   27.5810 C.2   1639  INH1639     0.2840
     12  O7        33.5940   20.4000   27.9680 O.2   1639  INH1639    -0.2670
     13  H11       29.6150   21.1600   26.1680 H     1639  INH1639     0.1670
     14  H12       31.8230   18.5000   28.4230 H     1639  INH1639     0.1730
     15  O1        32.6590   20.4480   24.7370 O.3   1639  INH1639    -0.3870
     16  H2        31.9900   19.8010   24.9320 H     1639  INH1639     0.2100
     17  O2        33.7510   23.0340   24.0500 O.3   1639  INH1639    -0.3900
     18  H4        34.5650   23.5190   23.9900 H     1639  INH1639     0.2100
     19  C6        32.3950   24.6250   28.5440 C.3   1639  INH1639     0.1980
     20  O4        32.0420   25.7570   27.7410 O.3   1639  INH1639    -0.3980
     21  H10       31.8010   25.4630   26.8690 H     1639  INH1639     0.2090
     22  O3        34.2860   24.7060   26.2620 O.3   1639  INH1639    -0.3900
     23  H6        34.5670   24.8140   27.1630 H     1639  INH1639     0.2100
@<TRIPOS>BOND
     1    18    17    1
     2    17     3    1
     3    15    16    1
     4    15     2    1
     5     2     3    1
     6     2     1    1
     7     3     4    1
     8    13     7    1
     9     4    22    1
    10     4     5    1
    11    22    23    1
    12     7     1    1
    13     7     8   am
    14     1     6    1
    15     1    11    1
    16    21    20    1
    17     8     9    2
    18     8    10   am
    19     6     5    1
    20    11    10   am
    21    11    12    2
    22     5    19    1
    23    20    19    1
    24    10    14    1
