@<TRIPOS>MOLECULE
/tmp/ewbell/vina_1a8i_1a8i_lig/vina/vina2.pdbqt
 23 24 0 0 0
SMALL
GASTEIGER

@<TRIPOS>ATOM
      1  C1        32.5080   22.6070   26.1870 C.3   1639  INH1639     0.2500
      2  C2        31.0390   22.7900   25.6540 C.3   1639  INH1639     0.2150
      3  C3        30.0370   22.0170   26.5700 C.3   1639  INH1639     0.1830
      4  C4        30.5550   20.5920   26.6870 C.3   1639  INH1639     0.1800
      5  C5        31.9650   20.5090   27.2650 C.3   1639  INH1639     0.1800
      6  O5        32.8920   21.2400   26.4720 O.3   1639  INH1639    -0.3400
      7  N1        33.4660   23.1170   25.2200 N.am  1639  INH1639    -0.3000
      8  C7        34.2370   24.0330   25.8160 C.2   1639  INH1639     0.3250
      9  O6        35.1710   24.6260   25.2140 O.2   1639  INH1639    -0.2470
     10  N2        33.9670   24.2990   27.0900 N.am  1639  INH1639    -0.2750
     11  C8        32.9220   23.4520   27.3980 C.2   1639  INH1639     0.2840
     12  O7        32.4410   23.4270   28.5190 O.2   1639  INH1639    -0.2670
     13  H11       33.5370   22.8290   24.2650 H     1639  INH1639     0.1670
     14  H12       34.4180   24.9620   27.6880 H     1639  INH1639     0.1730
     15  O1        30.7300   24.1790   25.7210 O.3   1639  INH1639    -0.3870
     16  H2        30.7080   24.5420   24.8430 H     1639  INH1639     0.2100
     17  O2        28.8460   21.9900   25.8110 O.3   1639  INH1639    -0.3900
     18  H4        28.4990   22.8710   25.7360 H     1639  INH1639     0.2100
     19  C6        32.5090   19.1140   27.5100 C.3   1639  INH1639     0.1980
     20  O4        33.7140   18.9660   26.7490 O.3   1639  INH1639    -0.3980
     21  H10       33.7550   19.6480   26.0880 H     1639  INH1639     0.2090
     22  O3        29.6330   19.8330   27.4560 O.3   1639  INH1639    -0.3900
     23  H6        30.1040   19.1860   27.9670 H     1639  INH1639     0.2100
@<TRIPOS>BOND
     1    13     7    1
     2    16    15    1
     3     9     8    2
     4     7     8   am
     5     7     1    1
     6     2    15    1
     7     2     1    1
     8     2     3    1
     9    18    17    1
    10    17     3    1
    11     8    10   am
    12    21    20    1
    13     1     6    1
    14     1    11    1
    15     6     5    1
    16     3     4    1
    17     4     5    1
    18     4    22    1
    19    20    19    1
    20    10    11   am
    21    10    14    1
    22     5    19    1
    23    11    12    2
    24    22    23    1
