@<TRIPOS>MOLECULE
/tmp/ewbell/vina_1a8i_1a8i_lig/vina/vina4.pdbqt
 23 24 0 0 0
SMALL
GASTEIGER

@<TRIPOS>ATOM
      1  C1        32.4870   22.1290   27.0960 C.3   1639  INH1639     0.2500
      2  C2        31.3900   22.7960   26.1860 C.3   1639  INH1639     0.2150
      3  C3        31.5320   24.3510   26.2310 C.3   1639  INH1639     0.1830
      4  C4        31.5480   24.7510   27.6980 C.3   1639  INH1639     0.1800
      5  C5        32.6780   24.1000   28.4880 C.3   1639  INH1639     0.1800
      6  O5        32.5970   22.6800   28.4310 O.3   1639  INH1639    -0.3400
      7  N1        32.2220   20.7080   27.2530 N.am  1639  INH1639    -0.3000
      8  C7        33.2980   20.0190   26.8590 C.2   1639  INH1639     0.3250
      9  O6        33.3530   18.7630   26.9080 O.2   1639  INH1639    -0.2470
     10  N2        34.3240   20.7310   26.4020 N.am  1639  INH1639    -0.2750
     11  C8        33.9080   22.0410   26.5270 C.2   1639  INH1639     0.2840
     12  O7        34.6380   22.9670   26.2100 O.2   1639  INH1639    -0.2670
     13  H11       31.3720   20.3100   27.5990 H     1639  INH1639     0.1670
     14  H12       35.1960   20.3950   26.0480 H     1639  INH1639     0.1730
     15  O1        31.6210   22.3600   24.8500 O.3   1639  INH1639    -0.3870
     16  H2        32.2000   22.9740   24.4120 H     1639  INH1639     0.2100
     17  O2        30.3230   24.8110   25.6630 O.3   1639  INH1639    -0.3900
     18  H4        30.3600   25.7550   25.5620 H     1639  INH1639     0.2100
     19  C6        32.8220   24.5320   29.9350 C.3   1639  INH1639     0.1980
     20  O4        31.5090   24.6700   30.4910 O.3   1639  INH1639    -0.3980
     21  H10       31.2670   25.5890   30.5050 H     1639  INH1639     0.2090
     22  O3        31.6040   26.1680   27.7830 O.3   1639  INH1639    -0.3900
     23  H6        32.0970   26.5110   27.0470 H     1639  INH1639     0.2100
@<TRIPOS>BOND
     1    16    15    1
     2    15     2    1
     3    18    17    1
     4    17     3    1
     5    14    10    1
     6     2     3    1
     7     2     1    1
     8    12    11    2
     9     3     4    1
    10    10    11   am
    11    10     8   am
    12    11     1    1
    13     8     9    2
    14     8     7   am
    15    23    22    1
    16     1     7    1
    17     1     6    1
    18     7    13    1
    19     4    22    1
    20     4     5    1
    21     6     5    1
    22     5    19    1
    23    19    20    1
    24    20    21    1
