@<TRIPOS>MOLECULE
/tmp/ewbell/vina_1a8i_1a8i_lig/vina/vina1.pdbqt
 23 24 0 0 0
SMALL
GASTEIGER

@<TRIPOS>ATOM
      1  C1        33.7670   22.8250   27.6290 C.3   1639  INH1639     0.2500
      2  C2        33.8370   23.0730   26.0770 C.3   1639  INH1639     0.2150
      3  C3        32.5920   22.4400   25.3780 C.3   1639  INH1639     0.1830
      4  C4        32.5110   20.9940   25.8430 C.3   1639  INH1639     0.1800
      5  C5        32.3890   20.8550   27.3570 C.3   1639  INH1639     0.1800
      6  O5        33.4920   21.4590   28.0220 O.3   1639  INH1639    -0.3400
      7  N1        35.0240   23.1950   28.2600 N.am  1639  INH1639    -0.3000
      8  C7        34.7800   24.0960   29.2180 C.2   1639  INH1639     0.3250
      9  O6        35.6900   24.5760   29.9430 O.2   1639  INH1639    -0.2470
     10  N2        33.5130   24.4710   29.3710 N.am  1639  INH1639    -0.2750
     11  C8        32.8240   23.7250   28.4380 C.2   1639  INH1639     0.2840
     12  O7        31.6120   23.8150   28.3300 O.2   1639  INH1639    -0.2670
     13  H11       35.9240   22.8350   28.0160 H     1639  INH1639     0.1670
     14  H12       33.1450   25.1420   30.0150 H     1639  INH1639     0.1730
     15  O1        33.8040   24.4810   25.8670 O.3   1639  INH1639    -0.3870
     16  H2        34.4350   24.7170   25.1960 H     1639  INH1639     0.2100
     17  O2        32.9420   22.4420   24.0090 O.3   1639  INH1639    -0.3900
     18  H4        32.3290   21.9010   23.5250 H     1639  INH1639     0.2100
     19  C6        32.1980   19.4460   27.8880 C.3   1639  INH1639     0.1980
     20  O4        30.8290   19.0770   27.6910 O.3   1639  INH1639    -0.3980
     21  H10       30.6230   19.1080   26.7630 H     1639  INH1639     0.2090
     22  O3        31.4300   20.3600   25.1740 O.3   1639  INH1639    -0.3900
     23  H6        31.7310   20.0180   24.3400 H     1639  INH1639     0.2100
@<TRIPOS>BOND
     1    18    17    1
     2    17     3    1
     3    23    22    1
     4    22     4    1
     5    16    15    1
     6     3     4    1
     7     3     2    1
     8     4     5    1
     9    15     2    1
    10     2     1    1
    11    21    20    1
    12     5    19    1
    13     5     6    1
    14     1     6    1
    15     1     7    1
    16     1    11    1
    17    20    19    1
    18    13     7    1
    19     7     8   am
    20    12    11    2
    21    11    10   am
    22     8    10   am
    23     8     9    2
    24    10    14    1
