@<TRIPOS>MOLECULE
/tmp/ewbell/vina_1a8i_1a8i_lig/vina/vina5.pdbqt
 23 24 0 0 0
SMALL
GASTEIGER

@<TRIPOS>ATOM
      1  C1        33.3350   22.8290   27.2690 C.3   1639  INH1639     0.2500
      2  C2        32.0210   23.4580   27.8640 C.3   1639  INH1639     0.2150
      3  C3        32.3580   24.7870   28.6130 C.3   1639  INH1639     0.1830
      4  C4        33.4770   24.4710   29.5940 C.3   1639  INH1639     0.1800
      5  C5        34.7290   23.9180   28.9200 C.3   1639  INH1639     0.1800
      6  O5        34.4430   22.7270   28.1960 O.3   1639  INH1639    -0.3400
      7  N1        33.0760   21.4840   26.7800 N.am  1639  INH1639    -0.3000
      8  C7        33.4360   21.4140   25.4930 C.2   1639  INH1639     0.3250
      9  O6        33.3400   20.3540   24.8210 O.2   1639  INH1639    -0.2470
     10  N2        33.9020   22.5320   24.9450 N.am  1639  INH1639    -0.2750
     11  C8        33.8830   23.4480   25.9780 C.2   1639  INH1639     0.2840
     12  O7        34.2770   24.5910   25.8130 O.2   1639  INH1639    -0.2670
     13  H11       32.6920   20.7340   27.3170 H     1639  INH1639     0.1670
     14  H12       34.1980   22.6770   24.0010 H     1639  INH1639     0.1730
     15  O1        31.1600   23.7630   26.7710 O.3   1639  INH1639    -0.3870
     16  H2        30.2560   23.6330   27.0330 H     1639  INH1639     0.2100
     17  O2        31.1860   25.0560   29.3560 O.3   1639  INH1639    -0.3900
     18  H4        31.2530   24.6470   30.2110 H     1639  INH1639     0.2100
     19  C6        35.9250   23.6770   29.8220 C.3   1639  INH1639     0.1980
     20  O4        36.3970   24.9470   30.2860 O.3   1639  INH1639    -0.3980
     21  H10       36.8200   24.8370   31.1300 H     1639  INH1639     0.2090
     22  O3        33.7650   25.6390   30.3490 O.3   1639  INH1639    -0.3900
     23  H6        33.4640   26.4050   29.8740 H     1639  INH1639     0.2100
@<TRIPOS>BOND
     1    14    10    1
     2     9     8    2
     3    10     8   am
     4    10    11   am
     5     8     7   am
     6    12    11    2
     7    11     1    1
     8    15    16    1
     9    15     2    1
    10     7     1    1
    11     7    13    1
    12     1     2    1
    13     1     6    1
    14     2     3    1
    15     6     5    1
    16     3    17    1
    17     3     4    1
    18     5     4    1
    19     5    19    1
    20    17    18    1
    21     4    22    1
    22    19    20    1
    23    23    22    1
    24    20    21    1
