@<TRIPOS>MOLECULE
./ligand/1p1n_lig.pdb
 29 29 0 0 0
SMALL
GASTEIGER

@<TRIPOS>ATOM
      1  N1        13.6940    3.0170   16.1000 N.4   521  INH521      0.2379
      2  C1        14.4440    1.8130   16.2830 C.3   521  INH521      0.0844
      3  C2        14.6040    1.4730   17.8000 C.2   521  INH521      0.4030
      4  O1        13.9600    2.2010   18.5850 O.co2 521  INH521     -0.2400
      5  O2        15.3410    0.5050   18.0830 O.co2 521  INH521     -0.2400
      6  H1        13.0370    2.8920   15.3460 H     521  INH521      0.2022
      7  H2        13.1940    3.2340   16.9480 H     521  INH521      0.2022
      8  H3        13.8970    0.9880   15.8030 H     521  INH521      0.0973
      9  C3        17.0860    5.0280   14.4380 C.2   521  INH521     -0.0993
     10  C4        15.8080    1.9430   15.6100 C.3   521  INH521      0.0341
     11  C5        15.7940    1.7100   14.0950 C.3   521  INH521      0.0584
     12  C6        15.9940    3.3470   15.7600 C.3   521  INH521      0.0287
     13  C7        14.6330    4.1480   15.7670 C.3   521  INH521     -0.0257
     14  C8        18.5830    3.5700   15.6900 C.3   521  INH521     -0.0436
     15  C9        15.8430    0.2610   13.6720 C.2   521  INH521      0.3565
     16  C10       17.2680    4.0640   15.2500 C.2   521  INH521     -0.0711
     17  O3        15.6720    0.0330   12.4540 O.co2 521  INH521     -0.2464
     18  O4        16.0610   -0.5940   14.5540 O.co2 521  INH521     -0.2464
     19  H4        14.6210    4.9340   16.5370 H     521  INH521      0.0820
     20  H5        14.4110    4.5930   14.7860 H     521  INH521      0.0820
     21  H6        17.9400    5.5750   14.0410 H     521  INH521      0.0534
     22  H7        16.0760    5.3060   14.1400 H     521  INH521      0.0534
     23  H8        18.4450    2.7330   16.3900 H     521  INH521      0.0274
     24  H9        19.1300    4.3810   16.1930 H     521  INH521      0.0274
     25  H10       19.1570    3.2270   14.8160 H     521  INH521      0.0274
     26  H11       16.5760    1.3270   16.1000 H     521  INH521      0.0374
     27  H12       16.6670    2.2210   13.6630 H     521  INH521      0.0384
     28  H13       14.8720    2.1530   13.6900 H     521  INH521      0.0384
     29  H14       16.2270    3.3730   16.8350 H     521  INH521      0.0402
@<TRIPOS>BOND
     1     1     2    1
     2     1    13    1
     3     1     7    1
     4     1     6    1
     5     2     3    1
     6     2     8    1
     7     2    10    1
     8     3     4   ar
     9     3     5   ar
    10     9    16    2
    11     9    22    1
    12     9    21    1
    13    10    26    1
    14    10    12    1
    15    10    11    1
    16    11    28    1
    17    11    27    1
    18    11    15    1
    19    12    29    1
    20    12    16    1
    21    12    13    1
    22    13    20    1
    23    13    19    1
    24    14    16    1
    25    14    25    1
    26    14    24    1
    27    14    23    1
    28    15    18   ar
    29    15    17   ar
