@<TRIPOS>MOLECULE
/tmp/ewbell/vina_1p1n_1p1n_lig/vina/vina5.pdbqt
 19 19 0 0 0
SMALL
GASTEIGER

@<TRIPOS>ATOM
      1  N1        14.8380    2.9260   15.0850 N.4   521  INH521     -0.0600
      2  C1        15.4200    1.8070   14.4100 C.3   521  INH521      0.2870
      3  H1        14.2510    3.4370   14.4440 H     521  INH521      0.2780
      4  H2        14.2830    2.5990   15.8600 H     521  INH521      0.2780
      5  C4        16.8510    2.1370   13.9950 C.3   521  INH521      0.0460
      6  C6        17.1830    3.0360   15.0480 C.3   521  INH521      0.0460
      7  C7        15.9310    3.8290   15.5950 C.3   521  INH521      0.2420
      8  C5        16.9650    2.9740   12.7160 C.3   521  INH521      0.1170
      9  C9        16.2850    2.3830   11.5030 C.2   521  INH521      0.1390
     10  O4        15.2680    2.9590   11.0700 O.2   521  INH521     -0.6500
     11  O3        16.7960    1.3420   11.0340 O.3   521  INH521     -0.7760
     12  H         17.3290    0.7950   11.5770 H     521  INH521      0.1670
     13  C2        15.3830    0.5270   15.3050 C.2   521  INH521      0.1720
     14  O1        15.0110    0.7050   16.4840 O.2   521  INH521     -0.6480
     15  O2        15.7110   -0.5490   14.7600 O.3   521  INH521     -0.7750
     16  H         16.5720   -0.8940   14.8870 H     521  INH521      0.1670
     17  C10       18.5780    3.7020   15.1480 C.2   521  INH521     -0.0870
     18  C3        19.4090    3.1530   15.9410 C.2   521  INH521      0.0140
     19  C8        18.8360    4.9260   14.3720 C.3   521  INH521      0.0430
@<TRIPOS>BOND
     1    11     9    1
     2    11    12    1
     3    10     9    2
     4     9     8    1
     5     8     5    1
     6     5     2    1
     7     5     6    1
     8    19    17    1
     9     2     1    1
    10     2    13    1
    11     3     1    1
    12    15    16    1
    13    15    13    1
    14     6    17    1
    15     6     7    1
    16     1     7    1
    17     1     4    1
    18    17    18    2
    19    13    14    2
