@<TRIPOS>MOLECULE
/tmp/ewbell/vina_1p1n_1p1n_lig/vina/vina2.pdbqt
 19 19 0 0 0
SMALL
GASTEIGER

@<TRIPOS>ATOM
      1  N1        15.8160    1.0840   15.7180 N.4   521  INH521     -0.0600
      2  C1        15.8470    2.5140   15.7120 C.3   521  INH521      0.2870
      3  H1        16.6690    0.7310   16.1250 H     521  INH521      0.2780
      4  H2        15.0290    0.7670   16.2630 H     521  INH521      0.2780
      5  C4        16.2410    3.0190   14.3260 C.3   521  INH521      0.0460
      6  C6        15.6950    1.9620   13.5440 C.3   521  INH521      0.0460
      7  C7        15.6860    0.5780   14.3050 C.3   521  INH521      0.2420
      8  C5        17.7470    2.9800   14.0400 C.3   521  INH521      0.1170
      9  C9        18.3250    4.2630   13.4910 C.2   521  INH521      0.1390
     10  O4        19.3000    4.1760   12.7190 O.2   521  INH521     -0.6500
     11  O3        17.7800    5.3240   13.8690 O.3   521  INH521     -0.7760
     12  H         18.3050    6.0420   14.1620 H     521  INH521      0.1670
     13  C2        14.4700    3.1100   16.1490 C.2   521  INH521      0.1720
     14  O1        14.0820    4.1020   15.4970 O.2   521  INH521     -0.6480
     15  O2        13.8830    2.5350   17.0900 O.3   521  INH521     -0.7750
     16  H         13.1750    2.9610   17.5310 H     521  INH521      0.1670
     17  C10       15.7920    1.9520   11.9980 C.2   521  INH521     -0.0870
     18  C3        16.1820    0.8640   11.4640 C.2   521  INH521      0.0140
     19  C8        15.4760    3.1860   11.2610 C.3   521  INH521      0.0430
@<TRIPOS>BOND
     1    19    17    1
     2    18    17    2
     3    17     6    1
     4    10     9    2
     5     9    11    1
     6     9     8    1
     7     6     7    1
     8     6     5    1
     9    11    12    1
    10     8     5    1
    11     7     1    1
    12     5     2    1
    13    14    13    2
    14     2     1    1
    15     2    13    1
    16     1     3    1
    17     1     4    1
    18    13    15    1
    19    15    16    1
