@<TRIPOS>MOLECULE
/tmp/ewbell/vina_1p1n_1p1n_lig/vina/vina3.pdbqt
 19 19 0 0 0
SMALL
GASTEIGER

@<TRIPOS>ATOM
      1  N1        15.0470    2.1560   15.3790 N.4   521  INH521     -0.0600
      2  C1        15.9050    1.8170   14.2860 C.3   521  INH521      0.2870
      3  H1        14.5820    3.0280   15.1840 H     521  INH521      0.2780
      4  H2        14.3590    1.4300   15.5050 H     521  INH521      0.2780
      5  C4        17.3450    2.1960   14.6190 C.3   521  INH521      0.0460
      6  C6        17.2990    2.0170   16.0310 C.3   521  INH521      0.0460
      7  C7        15.8670    2.2930   16.6370 C.3   521  INH521      0.2420
      8  C5        17.6740    3.6800   14.4240 C.3   521  INH521      0.1170
      9  C9        18.4600    4.0010   13.1740 C.2   521  INH521      0.1390
     10  O4        18.1170    3.4420   12.1140 O.2   521  INH521     -0.6500
     11  O3        19.4110    4.8020   13.3080 O.3   521  INH521     -0.7760
     12  H         19.8350    4.8910   14.1390 H     521  INH521      0.1670
     13  C2        15.7970    0.2980   13.9340 C.2   521  INH521      0.1720
     14  O1        16.6000   -0.1120   13.0700 O.2   521  INH521     -0.6480
     15  O2        14.9370   -0.3620   14.5550 O.3   521  INH521     -0.7750
     16  H         14.8370   -0.2480   15.4800 H     521  INH521      0.1670
     17  C10       18.5370    2.2570   16.9290 C.2   521  INH521     -0.0870
     18  C3        18.4370    1.8810   18.1420 C.2   521  INH521      0.0140
     19  C8        19.7120    2.9310   16.3510 C.3   521  INH521      0.0430
@<TRIPOS>BOND
     1    10     9    2
     2    14    13    2
     3     9    11    1
     4     9     8    1
     5    11    12    1
     6    13     2    1
     7    13    15    1
     8     2     5    1
     9     2     1    1
    10     8     5    1
    11    15    16    1
    12     5     6    1
    13     3     1    1
    14     1     4    1
    15     1     7    1
    16     6     7    1
    17     6    17    1
    18    19    17    1
    19    17    18    2
