@<TRIPOS>MOLECULE
/tmp/ewbell/vina_1p1n_1p1n_lig/vina/vina4.pdbqt
 19 19 0 0 0
SMALL
GASTEIGER

@<TRIPOS>ATOM
      1  N1        16.0220    1.0380   13.9200 N.4   521  INH521     -0.0600
      2  C1        15.5900    2.3990   13.8340 C.3   521  INH521      0.2870
      3  H1        15.3440    0.5030   14.4400 H     521  INH521      0.2780
      4  H2        16.1110    0.6540   12.9920 H     521  INH521      0.2780
      5  C4        16.3220    3.2430   14.8750 C.3   521  INH521      0.0460
      6  C6        17.5440    2.5140   14.9280 C.3   521  INH521      0.0460
      7  C7        17.3550    0.9770   14.6190 C.3   521  INH521      0.2420
      8  C5        15.7450    3.1440   16.2920 C.3   521  INH521      0.1170
      9  C9        14.3920    2.4790   16.3850 C.2   521  INH521      0.1390
     10  O4        14.3630    1.2500   16.5920 O.2   521  INH521     -0.6500
     11  O3        13.3970    3.2230   16.2340 O.3   521  INH521     -0.7760
     12  H         12.9930    3.6210   16.9790 H     521  INH521      0.1670
     13  C2        15.8150    2.9720   12.3970 C.2   521  INH521      0.1720
     14  O1        15.3200    2.3020   11.4670 O.2   521  INH521     -0.6480
     15  O2        16.4490    4.0450   12.3150 O.3   521  INH521     -0.7750
     16  H         16.8780    4.3950   13.0710 H     521  INH521      0.1670
     17  C10       18.7130    2.9420   15.8490 C.2   521  INH521     -0.0870
     18  C3        18.8410    2.2940   16.9380 C.2   521  INH521      0.0140
     19  C8        19.5600    4.0750   15.4390 C.3   521  INH521      0.0430
@<TRIPOS>BOND
     1    14    13    2
     2    15    13    1
     3    15    16    1
     4    13     2    1
     5     4     1    1
     6     2     1    1
     7     2     5    1
     8     1     3    1
     9     1     7    1
    10     7     6    1
    11     5     6    1
    12     5     8    1
    13     6    17    1
    14    19    17    1
    15    17    18    2
    16    11     9    1
    17    11    12    1
    18     8     9    1
    19     9    10    2
