@<TRIPOS>MOLECULE
/tmp/ewbell/vina_1p1n_1p1n_lig/vina/vina1.pdbqt
 19 19 0 0 0
SMALL
GASTEIGER

@<TRIPOS>ATOM
      1  N1        14.0800    3.3720   15.8680 N.4   521  INH521     -0.0600
      2  C1        14.6000    2.1380   16.3680 C.3   521  INH521      0.2870
      3  H1        13.4670    3.1880   15.0890 H     521  INH521      0.2780
      4  H2        13.5630    3.8400   16.5970 H     521  INH521      0.2780
      5  C4        16.0110    1.9130   15.8320 C.3   521  INH521      0.0460
      6  C6        16.4210    3.2720   15.7160 C.3   521  INH521      0.0460
      7  C7        15.2180    4.2510   15.4160 C.3   521  INH521      0.2420
      8  C5        16.0680    1.3640   14.4020 C.3   521  INH521      0.1170
      9  C9        15.9490   -0.1380   14.2900 C.2   521  INH521      0.1390
     10  O4        16.9920   -0.7890   14.0830 O.2   521  INH521     -0.6500
     11  O3        14.7970   -0.6130   14.4040 O.3   521  INH521     -0.7760
     12  H         14.1760   -0.2040   14.9740 H     521  INH521      0.1670
     13  C2        14.5900    2.1130   17.9310 C.2   521  INH521      0.1720
     14  O1        15.4140    1.3390   18.4620 O.2   521  INH521     -0.6480
     15  O2        13.7770    2.8730   18.4990 O.3   521  INH521     -0.7750
     16  H         14.0610    3.4200   19.2040 H     521  INH521      0.1670
     17  C10       17.8310    3.6620   15.2100 C.2   521  INH521     -0.0870
     18  C3        17.8750    4.4720   14.2280 C.2   521  INH521      0.0140
     19  C8        19.0080    3.0530   15.8520 C.3   521  INH521      0.0430
@<TRIPOS>BOND
     1    10     9    2
     2    18    17    2
     3     9     8    1
     4     9    11    1
     5     8     5    1
     6    11    12    1
     7     3     1    1
     8    17     6    1
     9    17    19    1
    10     7     6    1
    11     7     1    1
    12     6     5    1
    13     5     2    1
    14     1     2    1
    15     1     4    1
    16     2    13    1
    17    13    14    2
    18    13    15    1
    19    15    16    1
