@<TRIPOS>MOLECULE
./ligand/2zn7_lig.pdb
 57 60 0 0 0
SMALL
GASTEIGER

@<TRIPOS>ATOM
      1  C1        48.5590   12.4160   -3.3400 C.ar  300  INH300     -0.0617
      2  C2        47.9770   11.1460   -3.3450 C.ar  300  INH300     -0.0610
      3  C3        48.3050   10.2140   -2.3520 C.ar  300  INH300     -0.0496
      4  C4        49.2250   10.5420   -1.3410 C.ar  300  INH300      0.0372
      5  C5        49.8070   11.8160   -1.3410 C.ar  300  INH300     -0.0496
      6  C6        49.4750   12.7430   -2.3360 C.ar  300  INH300     -0.0610
      7  C7        49.5540    9.5190   -0.2990 C.2   300  INH300      0.2511
      8  O1        50.6980    9.0630   -0.2960 O.2   300  INH300     -0.2696
      9  N1        48.5540    9.1150    0.6020 N.am  300  INH300     -0.2644
     10  C8        47.2420    9.6990    0.5700 C.ar  300  INH300      0.0375
     11  C9        46.1240    9.0360    0.0560 C.ar  300  INH300     -0.0402
     12  C10       44.8780    9.6670    0.0570 C.ar  300  INH300     -0.0594
     13  C11       44.7280   10.9630    0.5670 C.ar  300  INH300     -0.0534
     14  C12       45.8380   11.6510    1.0870 C.ar  300  INH300     -0.0083
     15  C13       47.0870   11.0050    1.0800 C.ar  300  INH300     -0.0320
     16  C14       45.7120   13.0190    1.6060 C.ar  300  INH300      0.0378
     17  C15       46.2970   13.6400    2.6970 C.ar  300  INH300      0.0751
     18  C16       45.9190   15.0020    2.8620 C.ar  300  INH300      0.1570
     19  C17       45.0220   15.3700    1.8740 C.ar  300  INH300      0.1436
     20  S1        44.6830   14.1060    0.7680 S.2   300  INH300     -0.0769
     21  C18       44.3410   16.7580    1.6490 C.2   300  INH300      0.3966
     22  O2        43.8310   16.8970    0.4990 O.co2 300  INH300     -0.2399
     23  O3        44.3330   17.5910    2.5970 O.co2 300  INH300     -0.2399
     24  O4        46.3510   15.8080    3.8840 O.3   300  INH300     -0.4781
     25  C19       47.5490   16.5590    3.6400 C.3   300  INH300      0.1902
     26  C20       47.8720   17.2790    4.9650 C.2   300  INH300      0.3927
     27  O5        48.9770   17.8700    5.0200 O.co2 300  INH300     -0.2425
     28  O6        47.0020   17.1990    5.8780 O.co2 300  INH300     -0.2425
     29 Br1        47.5090   12.8180    3.9060 Br    300  INH300     -0.0453
     30  C21       48.8730    8.0870    1.6430 C.3   300  INH300      0.0314
     31  C22       48.1310    6.7610    1.4280 C.3   300  INH300     -0.0339
     32  C23       48.6100    5.7150    2.4250 C.3   300  INH300     -0.0514
     33  C24       48.3070    6.1910    3.8420 C.3   300  INH300     -0.0529
     34  C25       49.0250    7.5090    4.1340 C.3   300  INH300     -0.0514
     35  C26       48.7350    8.5940    3.0870 C.3   300  INH300     -0.0339
     36  H1        48.3030   13.1390   -4.1060 H     300  INH300      0.0618
     37  H2        47.2680   10.8800   -4.1210 H     300  INH300      0.0618
     38  H3        47.8460    9.2320   -2.3630 H     300  INH300      0.0625
     39  H4        50.5170   12.0850   -0.5680 H     300  INH300      0.0625
     40  H5        49.9330   13.7250   -2.3280 H     300  INH300      0.0618
     41  H6        46.2240    8.0330   -0.3430 H     300  INH300      0.0636
     42  H7        44.0150    9.1470   -0.3420 H     300  INH300      0.0618
     43  H8        43.7530   11.4370    0.5610 H     300  INH300      0.0624
     44  H9        47.9520   11.5240    1.4770 H     300  INH300      0.0642
     45  H10       47.3840   17.2920    2.8360 H     300  INH300      0.0817
     46  H11       48.3730   15.8860    3.3590 H     300  INH300      0.0817
     47  H12       49.9410    7.8580    1.5100 H     300  INH300      0.0505
     48  H13       48.3210    6.4010    0.4060 H     300  INH300      0.0283
     49  H14       47.0520    6.9240    1.5640 H     300  INH300      0.0283
     50  H15       49.6940    5.5680    2.3110 H     300  INH300      0.0266
     51  H16       48.0900    4.7640    2.2380 H     300  INH300      0.0266
     52  H17       48.6460    5.4290    4.5590 H     300  INH300      0.0265
     53  H18       47.2220    6.3390    3.9490 H     300  INH300      0.0265
     54  H19       50.1090    7.3210    4.1530 H     300  INH300      0.0266
     55  H20       48.6990    7.8760    5.1180 H     300  INH300      0.0266
     56  H21       47.7070    8.9570    3.2340 H     300  INH300      0.0283
     57  H22       49.4420    9.4230    3.2370 H     300  INH300      0.0283
@<TRIPOS>BOND
     1     1    36    1
     2     1     6   ar
     3     1     2   ar
     4     2    37    1
     5     2     3   ar
     6     3    38    1
     7     3     4   ar
     8     4     7    1
     9     4     5   ar
    10     5    39    1
    11     5     6   ar
    12     6    40    1
    13     7     9   am
    14     7     8    2
    15     9    30    1
    16     9    10    1
    17    10    15   ar
    18    10    11   ar
    19    11    41    1
    20    11    12   ar
    21    12    42    1
    22    12    13   ar
    23    13    43    1
    24    13    14   ar
    25    14    16    1
    26    14    15   ar
    27    15    44    1
    28    16    20   ar
    29    16    17   ar
    30    17    29    1
    31    17    18   ar
    32    18    24    1
    33    18    19   ar
    34    19    21    1
    35    19    20   ar
    36    21    23   ar
    37    21    22   ar
    38    24    25    1
    39    25    46    1
    40    25    45    1
    41    25    26    1
    42    26    28   ar
    43    26    27   ar
    44    30    47    1
    45    30    35    1
    46    30    31    1
    47    31    49    1
    48    31    48    1
    49    31    32    1
    50    32    51    1
    51    32    50    1
    52    32    33    1
    53    33    53    1
    54    33    52    1
    55    33    34    1
    56    34    55    1
    57    34    54    1
    58    34    35    1
    59    35    57    1
    60    35    56    1
