@<TRIPOS>MOLECULE
/tmp/ewbell/vina_2zn7_2zn7_lig/vina/vina2.pdbqt
 37 40 0 0 0
SMALL
GASTEIGER

@<TRIPOS>ATOM
      1  C8        49.0310    8.7030    0.4770 C.ar  300  INH300      0.0380
      2  C9        49.1000    8.0390   -0.7500 C.ar  300  INH300      0.0300
      3  C10       49.8080    6.8400   -0.8550 C.ar  300  INH300      0.0030
      4  C11       50.4540    6.2860    0.2570 C.ar  300  INH300      0.0130
      5  C12       50.3970    6.9340    1.5030 C.ar  300  INH300     -0.0150
      6  C13       49.6800    8.1410    1.5960 C.ar  300  INH300      0.0420
      7  C14       51.0460    6.3620    2.6900 C.ar  300  INH300      0.0360
      8  S1        52.6680    5.8260    2.5410 S.2   300  INH300     -0.0790
      9  C17       52.7210    5.3440    4.1840 C.ar  300  INH300      0.1140
     10  C16       51.5270    5.5570    4.8510 C.ar  300  INH300      0.1120
     11  C15       50.5770    6.1540    3.9760 C.ar  300  INH300      0.0640
     12 Br1        48.8340    6.5930    4.5920 Br    300  INH300     -0.0470
     13  C18       54.0400    4.7110    4.7330 C.2   300  INH300      0.1860
     14  O3        54.8010    4.1050    3.9300 O.2   300  INH300     -0.6460
     15  O2        54.2010    4.8630    5.9780 O.3   300  INH300     -0.7720
     16  H         54.9620    5.3050    6.3030 H     300  INH300      0.1670
     17  O4        51.2950    5.2810    6.1740 O.3   300  INH300     -0.3380
     18  C19       50.9310    3.9300    6.4890 C.3   300  INH300      0.2850
     19  C20       51.7250    3.5640    7.7610 C.2   300  INH300      0.1640
     20  O6        52.1560    4.5290    8.4530 O.2   300  INH300     -0.6480
     21  O5        51.8580    2.3400    7.9980 O.3   300  INH300     -0.7750
     22  H         52.6560    2.0180    8.3690 H     300  INH300      0.1670
     23  N1        48.3210    9.9390    0.6620 N.am  300  INH300     -0.3090
     24  C7        47.3660   10.0860    1.6810 C.2   300  INH300      0.2580
     25  O1        47.0560    9.1830    2.4590 O.2   300  INH300     -0.2670
     26  C4        46.6920   11.4100    1.8620 C.ar  300  INH300      0.0320
     27  C3        45.4550   11.6380    1.2340 C.ar  300  INH300      0.0170
     28  C2        44.7990   12.8670    1.3790 C.ar  300  INH300      0.0010
     29  C1        45.3660   13.8810    2.1550 C.ar  300  INH300      0.0000
     30  C6        46.5960   13.6560    2.7790 C.ar  300  INH300      0.0010
     31  C5        47.2560   12.4300    2.6380 C.ar  300  INH300      0.0170
     32  C21       48.6380   11.1050   -0.2230 C.3   300  INH300      0.0930
     33  C26       50.1270   11.2320   -0.5840 C.3   300  INH300      0.0260
     34  C25       50.4180   12.4080   -1.5260 C.3   300  INH300      0.0020
     35  C24       49.4590   12.4700   -2.7160 C.3   300  INH300      0.0000
     36  C23       48.0100   12.4630   -2.2400 C.3   300  INH300      0.0020
     37  C22       47.7400   11.1800   -1.4650 C.3   300  INH300      0.0260
@<TRIPOS>BOND
     1    35    36    1
     2    35    34    1
     3    36    37    1
     4    34    33    1
     5    37    32    1
     6     3     2   ar
     7     3     4   ar
     8     2     1   ar
     9    33    32    1
    10    32    23    1
    11     4     5   ar
    12     1    23    1
    13     1     6   ar
    14    23    24   am
    15    27    28   ar
    16    27    26   ar
    17    28    29   ar
    18     5     6   ar
    19     5     7    1
    20    24    26    1
    21    24    25    2
    22    26    31   ar
    23    29    30   ar
    24     8     7   ar
    25     8     9   ar
    26    31    30   ar
    27     7    11   ar
    28    14    13    2
    29    11    12    1
    30    11    10   ar
    31     9    13    1
    32     9    10   ar
    33    13    15    1
    34    10    17    1
    35    15    16    1
    36    17    18    1
    37    18    19    1
    38    19    21    1
    39    19    20    2
    40    21    22    1
