@<TRIPOS>MOLECULE
/tmp/ewbell/vina_2zn7_2zn7_lig/vina/vina3.pdbqt
 37 40 0 0 0
SMALL
GASTEIGER

@<TRIPOS>ATOM
      1  C8        47.0490    9.5470    1.0090 C.ar  300  INH300      0.0380
      2  C9        45.9640    8.9550    0.3580 C.ar  300  INH300      0.0300
      3  C10       44.7860    9.6800    0.1650 C.ar  300  INH300      0.0030
      4  C11       44.6720   11.0020    0.6160 C.ar  300  INH300      0.0130
      5  C12       45.7500   11.6190    1.2720 C.ar  300  INH300     -0.0150
      6  C13       46.9320   10.8780    1.4590 C.ar  300  INH300      0.0420
      7  C14       45.6650   13.0110    1.7340 C.ar  300  INH300      0.0360
      8  S1        44.7650   14.1200    0.7840 S.2   300  INH300     -0.0790
      9  C17       45.0940   15.4050    1.8690 C.ar  300  INH300      0.1140
     10  C16       45.8940   15.0260    2.9330 C.ar  300  INH300      0.1120
     11  C15       46.2050   13.6400    2.8430 C.ar  300  INH300      0.0640
     12 Br1        47.2770   12.8000    4.1670 Br    300  INH300     -0.0470
     13  C18       44.5120   16.8190    1.5470 C.2   300  INH300      0.1860
     14  O3        44.2750   17.6090    2.5010 O.2   300  INH300     -0.6460
     15  O2        44.3140   17.0200    0.3130 O.3   300  INH300     -0.7720
     16  H         44.7450   17.7300   -0.1210 H     300  INH300      0.1670
     17  O4        46.2970   15.8450    3.9560 O.3   300  INH300     -0.3380
     18  C19       47.5270   16.5560    3.7570 C.3   300  INH300      0.2850
     19  C20       47.8570   17.2170    5.1120 C.2   300  INH300      0.1640
     20  O6        46.9050   17.3200    5.9360 O.2   300  INH300     -0.6480
     21  O5        49.0460   17.5800    5.2760 O.3   300  INH300     -0.7750
     22  H         49.6810   17.4250    4.6050 H     300  INH300      0.1670
     23  N1        48.2910    8.8650    1.2430 N.am  300  INH300     -0.3090
     24  C7        48.4770    8.0550    2.3760 C.2   300  INH300      0.2580
     25  O1        47.6180    7.8910    3.2430 O.2   300  INH300     -0.2670
     26  C4        49.7730    7.3250    2.5450 C.ar  300  INH300      0.0320
     27  C3        50.7180    7.8180    3.4610 C.ar  300  INH300      0.0170
     28  C2        51.9430    7.1630    3.6420 C.ar  300  INH300      0.0010
     29  C1        52.2370    6.0060    2.9150 C.ar  300  INH300      0.0000
     30  C6        51.2990    5.5160    2.0030 C.ar  300  INH300      0.0010
     31  C5        50.0730    6.1670    1.8180 C.ar  300  INH300      0.0170
     32  C21       49.3940    8.9860    0.2370 C.3   300  INH300      0.0930
     33  C26       49.1260    8.2410   -1.0810 C.3   300  INH300      0.0260
     34  C25       50.2510    8.4180   -2.1100 C.3   300  INH300      0.0020
     35  C24       50.6890    9.8740   -2.2700 C.3   300  INH300      0.0000
     36  C23       51.0500   10.4800   -0.9180 C.3   300  INH300      0.0020
     37  C22       49.8330   10.4370   -0.0050 C.3   300  INH300      0.0260
@<TRIPOS>BOND
     1    35    34    1
     2    35    36    1
     3    34    33    1
     4    33    32    1
     5    36    37    1
     6    16    15    1
     7    37    32    1
     8     3     2   ar
     9     3     4   ar
    10    32    23    1
    11    15    13    1
    12     2     1   ar
    13     4     5   ar
    14     8     7   ar
    15     8     9   ar
    16     1    23    1
    17     1     6   ar
    18    23    24   am
    19     5     6   ar
    20     5     7    1
    21    13     9    1
    22    13    14    2
    23     7    11   ar
    24    31    30   ar
    25    31    26   ar
    26     9    10   ar
    27    30    29   ar
    28    24    26    1
    29    24    25    2
    30    26    27   ar
    31    11    10   ar
    32    11    12    1
    33    29    28   ar
    34    10    17    1
    35    27    28   ar
    36    18    17    1
    37    18    19    1
    38    22    21    1
    39    19    21    1
    40    19    20    2
