@<TRIPOS>MOLECULE
/tmp/ewbell/vina_2zn7_2zn7_lig/vina/vina4.pdbqt
 37 40 0 0 0
SMALL
GASTEIGER

@<TRIPOS>ATOM
      1  C8        47.4640    9.4400    0.7340 C.ar  300  INH300      0.0380
      2  C9        46.9590    8.6260   -0.2830 C.ar  300  INH300      0.0300
      3  C10       47.3660    7.2940   -0.3780 C.ar  300  INH300      0.0030
      4  C11       48.2790    6.7540    0.5370 C.ar  300  INH300      0.0130
      5  C12       48.8000    7.5510    1.5700 C.ar  300  INH300     -0.0150
      6  C13       48.3810    8.8920    1.6550 C.ar  300  INH300      0.0420
      7  C14       49.7410    7.0030    2.5560 C.ar  300  INH300      0.0360
      8  S1        50.9630    8.0400    3.1660 S.2   300  INH300     -0.0790
      9  C17       51.5920    6.8030    4.1700 C.ar  300  INH300      0.1140
     10  C16       50.9140    5.6030    4.0440 C.ar  300  INH300      0.1120
     11  C15       49.8430    5.7410    3.1160 C.ar  300  INH300      0.0640
     12 Br1        48.7010    4.2730    2.7300 Br    300  INH300     -0.0470
     13  C18       52.8330    7.1280    5.0630 C.2   300  INH300      0.1860
     14  O3        53.0620    8.3300    5.3690 O.2   300  INH300     -0.6460
     15  O2        53.5150    6.1100    5.3800 O.3   300  INH300     -0.7720
     16  H         54.3030    5.9100    4.9120 H     300  INH300      0.1670
     17  O4        51.1930    4.4550    4.7390 O.3   300  INH300     -0.3380
     18  C19       50.5820    4.3260    6.0300 C.3   300  INH300      0.2850
     19  C20       51.7190    3.9450    7.0000 C.2   300  INH300      0.1640
     20  O6        52.2880    2.8350    6.7940 O.2   300  INH300     -0.6480
     21  O5        51.9840    4.7780    7.8990 O.3   300  INH300     -0.7750
     22  H         52.1040    5.6820    7.6810 H     300  INH300      0.1670
     23  N1        47.0910   10.8180    0.8960 N.am  300  INH300     -0.3090
     24  C7        46.4040   11.2580    2.0400 C.2   300  INH300      0.2580
     25  O1        46.0600   10.5120    2.9570 O.2   300  INH300     -0.2670
     26  C4        46.0840   12.7130    2.1820 C.ar  300  INH300      0.0320
     27  C3        44.9450   13.2260    1.5370 C.ar  300  INH300      0.0170
     28  C2        44.6170   14.5840    1.6460 C.ar  300  INH300      0.0010
     29  C1        45.4190   15.4450    2.4000 C.ar  300  INH300      0.0000
     30  C6        46.5530   14.9360    3.0400 C.ar  300  INH300      0.0010
     31  C5        46.8850   13.5800    2.9350 C.ar  300  INH300      0.0170
     32  C21       47.4790   11.8090   -0.1570 C.3   300  INH300      0.0930
     33  C26       48.9150   11.6430   -0.6760 C.3   300  INH300      0.0260
     34  C25       49.2730   12.6430   -1.7850 C.3   300  INH300      0.0020
     35  C24       48.2010   12.7370   -2.8710 C.3   300  INH300      0.0000
     36  C23       46.8350   13.0260   -2.2580 C.3   300  INH300      0.0020
     37  C22       46.4620   11.9000   -1.3030 C.3   300  INH300      0.0260
@<TRIPOS>BOND
     1    35    36    1
     2    35    34    1
     3    36    37    1
     4    34    33    1
     5    37    32    1
     6    33    32    1
     7     3     2   ar
     8     3     4   ar
     9     2     1   ar
    10    32    23    1
    11     4     5   ar
    12     1    23    1
    13     1     6   ar
    14    23    24   am
    15    27    28   ar
    16    27    26   ar
    17     5     6   ar
    18     5     7    1
    19    28    29   ar
    20    24    26    1
    21    24    25    2
    22    26    31   ar
    23    29    30   ar
    24     7    11   ar
    25     7     8   ar
    26    12    11    1
    27    31    30   ar
    28    11    10   ar
    29     8     9   ar
    30    10     9   ar
    31    10    17    1
    32     9    13    1
    33    17    18    1
    34    16    15    1
    35    13    14    2
    36    13    15    1
    37    18    19    1
    38    20    19    2
    39    19    21    1
    40    22    21    1
