@<TRIPOS>MOLECULE
/tmp/ewbell/vina_2zn7_2zn7_lig/vina/vina1.pdbqt
 37 40 0 0 0
SMALL
GASTEIGER

@<TRIPOS>ATOM
      1  C8        44.6650    9.9660   -1.4270 C.ar  300  INH300      0.0380
      2  C9        45.8110    9.1730   -1.3270 C.ar  300  INH300      0.0300
      3  C10       46.8660    9.5730   -0.5050 C.ar  300  INH300      0.0030
      4  C11       46.7950   10.7640    0.2300 C.ar  300  INH300      0.0130
      5  C12       45.6520   11.5770    0.1470 C.ar  300  INH300     -0.0150
      6  C13       44.5960   11.1630   -0.6840 C.ar  300  INH300      0.0420
      7  C14       45.5430   12.8180    0.9250 C.ar  300  INH300      0.0360
      8  S1        44.6190   14.1030    0.2630 S.2   300  INH300     -0.0790
      9  C17       44.9270   15.1010    1.6220 C.ar  300  INH300      0.1140
     10  C16       45.7370   14.4960    2.5670 C.ar  300  INH300      0.1120
     11  C15       46.0730   13.1770    2.1530 C.ar  300  INH300      0.0640
     12 Br1        47.1640   12.0670    3.2420 Br    300  INH300     -0.0470
     13  C18       44.3180   16.5400    1.6420 C.2   300  INH300      0.1860
     14  O3        43.0820   16.6790    1.4330 O.2   300  INH300     -0.6460
     15  O2        45.1690   17.4520    1.8550 O.3   300  INH300     -0.7720
     16  H         44.8830   18.3250    2.0450 H     300  INH300      0.1670
     17  O4        46.1270   15.0570    3.7560 O.3   300  INH300     -0.3380
     18  C19       47.3900   15.7360    3.7560 C.3   300  INH300      0.2850
     19  C20       47.1790   17.0230    4.5820 C.2   300  INH300      0.1640
     20  O6        45.9820   17.3900    4.7570 O.2   300  INH300     -0.6480
     21  O5        48.2140   17.5810    5.0150 O.3   300  INH300     -0.7750
     22  H         48.2460   17.8910    5.8990 H     300  INH300      0.1670
     23  N1        43.5400    9.6190   -2.2510 N.am  300  INH300     -0.3090
     24  C7        42.6600    8.5860   -1.8860 C.2   300  INH300      0.2580
     25  O1        42.7960    7.9030   -0.8710 O.2   300  INH300     -0.2670
     26  C4        41.4750    8.2990   -2.7540 C.ar  300  INH300      0.0320
     27  C3        40.2700    8.9800   -2.5110 C.ar  300  INH300      0.0170
     28  C2        39.1410    8.7330   -3.3020 C.ar  300  INH300      0.0010
     29  C1        39.2010    7.8070   -4.3470 C.ar  300  INH300      0.0000
     30  C6        40.3980    7.1280   -4.5890 C.ar  300  INH300      0.0010
     31  C5        41.5300    7.3700   -3.8010 C.ar  300  INH300      0.0170
     32  C21       43.2780   10.4020   -3.5000 C.3   300  INH300      0.0930
     33  C26       42.5300   11.7240   -3.2660 C.3   300  INH300      0.0260
     34  C25       42.3130   12.5280   -4.5550 C.3   300  INH300      0.0020
     35  C24       43.5800   12.6450   -5.4050 C.3   300  INH300      0.0000
     36  C23       44.1720   11.2670   -5.6820 C.3   300  INH300      0.0020
     37  C22       44.5330   10.5990   -4.3620 C.3   300  INH300      0.0260
@<TRIPOS>BOND
     1    36    35    1
     2    36    37    1
     3    35    34    1
     4    30    29   ar
     5    30    31   ar
     6    34    33    1
     7    37    32    1
     8    29    28   ar
     9    31    26   ar
    10    32    33    1
    11    32    23    1
    12    28    27   ar
    13    26    27   ar
    14    26    24    1
    15    23    24   am
    16    23     1    1
    17    24    25    2
    18     1     2   ar
    19     1     6   ar
    20     2     3   ar
    21     6     5   ar
    22     3     4   ar
    23     5     4   ar
    24     5     7    1
    25     8     7   ar
    26     8     9   ar
    27     7    11   ar
    28    14    13    2
    29     9    13    1
    30     9    10   ar
    31    13    15    1
    32    15    16    1
    33    11    10   ar
    34    11    12    1
    35    10    17    1
    36    18    17    1
    37    18    19    1
    38    19    20    2
    39    19    21    1
    40    21    22    1
