@<TRIPOS>MOLECULE
/tmp/ewbell/vina_2zn7_2zn7_lig/vina/vina5.pdbqt
 37 40 0 0 0
SMALL
GASTEIGER

@<TRIPOS>ATOM
      1  C8        46.9570    9.9800    0.0500 C.ar  300  INH300      0.0380
      2  C9        47.4780    9.1680    1.0610 C.ar  300  INH300      0.0300
      3  C10       47.5680    9.6520    2.3680 C.ar  300  INH300      0.0030
      4  C11       47.1420   10.9480    2.6860 C.ar  300  INH300      0.0130
      5  C12       46.6130   11.7830    1.6870 C.ar  300  INH300     -0.0150
      6  C13       46.5260   11.2830    0.3750 C.ar  300  INH300      0.0420
      7  C14       46.1360   13.1370    1.9990 C.ar  300  INH300      0.0360
      8  S1        45.0100   13.8610    0.9260 S.2   300  INH300     -0.0790
      9  C17       44.9350   15.2860    1.8750 C.ar  300  INH300      0.1140
     10  C16       45.7620   15.2450    2.9840 C.ar  300  INH300      0.1120
     11  C15       46.4390   13.9940    3.0440 C.ar  300  INH300      0.0640
     12 Br1        47.6410   13.6100    4.4640 Br    300  INH300     -0.0470
     13  C18       44.0080   16.4490    1.3980 C.2   300  INH300      0.1860
     14  O3        43.4660   16.3670    0.2620 O.2   300  INH300     -0.6460
     15  O2        43.9110   17.3990    2.2280 O.3   300  INH300     -0.7720
     16  H         44.2700   17.3080    3.0900 H     300  INH300      0.1670
     17  O4        45.8860   16.2380    3.9210 O.3   300  INH300     -0.3380
     18  C19       46.9550   17.1730    3.7220 C.3   300  INH300      0.2850
     19  C20       47.5790   17.4040    5.1140 C.2   300  INH300      0.1640
     20  O6        48.7910   17.7600    5.1370 O.2   300  INH300     -0.6480
     21  O5        46.8210   17.2290    6.0970 O.3   300  INH300     -0.7750
     22  H         45.9710   16.8550    5.9740 H     300  INH300      0.1670
     23  N1        46.8330    9.5510   -1.3150 N.am  300  INH300     -0.3090
     24  C7        47.9600    9.4210   -2.1440 C.2   300  INH300      0.2580
     25  O1        49.1070    9.6800   -1.7790 O.2   300  INH300     -0.2670
     26  C4        47.7810    8.9210   -3.5430 C.ar  300  INH300      0.0320
     27  C3        47.7050    7.5360   -3.7680 C.ar  300  INH300      0.0170
     28  C2        47.5410    7.0330   -5.0660 C.ar  300  INH300      0.0010
     29  C1        47.4470    7.9060   -6.1530 C.ar  300  INH300      0.0000
     30  C6        47.5230    9.2840   -5.9310 C.ar  300  INH300      0.0010
     31  C5        47.6880    9.7920   -4.6360 C.ar  300  INH300      0.0170
     32  C21       45.4810    9.1940   -1.8500 C.3   300  INH300      0.0930
     33  C26       44.5890    8.4400   -0.8510 C.3   300  INH300      0.0260
     34  C25       43.1940    8.1260   -1.4090 C.3   300  INH300      0.0020
     35  C24       42.5350    9.3320   -2.0800 C.3   300  INH300      0.0000
     36  C23       43.4540    9.9290   -3.1400 C.3   300  INH300      0.0020
     37  C22       44.7500   10.3860   -2.4840 C.3   300  INH300      0.0260
@<TRIPOS>BOND
     1    29    30   ar
     2    29    28   ar
     3    30    31   ar
     4    28    27   ar
     5    31    26   ar
     6    27    26   ar
     7    26    24    1
     8    36    37    1
     9    36    35    1
    10    37    32    1
    11    24    25    2
    12    24    23   am
    13    35    34    1
    14    32    23    1
    15    32    33    1
    16    34    33    1
    17    23     1    1
    18     1     6   ar
    19     1     2   ar
    20    14    13    2
    21     6     5   ar
    22     8     9   ar
    23     8     7   ar
    24     2     3   ar
    25    13     9    1
    26    13    15    1
    27     5     7    1
    28     5     4   ar
    29     9    10   ar
    30     7    11   ar
    31    15    16    1
    32     3     4   ar
    33    10    11   ar
    34    10    17    1
    35    11    12    1
    36    18    17    1
    37    18    19    1
    38    19    20    2
    39    19    21    1
    40    22    21    1
