@<TRIPOS>MOLECULE
./ligand/2b1q_lig.pdb
 45 46 0 0 0
SMALL
GASTEIGER

@<TRIPOS>ATOM
      1  C1        45.7210    1.4390   95.4410 C.3   248  INH248      0.1909
      2  C2        44.8050    1.7230   94.2200 C.3   248  INH248      0.1342
      3  C3        45.1410    0.6560   93.1350 C.3   248  INH248      0.1141
      4  C4        46.6210    0.8970   92.7430 C.3   248  INH248      0.1119
      5  C5        47.5470    0.6710   93.9890 C.3   248  INH248      0.1130
      6  C6        49.0150    0.9020   93.7600 C.3   248  INH248      0.0730
      7  O1        45.3590    0.1600   95.8730 O.3   248  INH248     -0.3174
      8  O2        43.4830    1.5880   94.6420 O.3   248  INH248     -0.3841
      9  O3        44.3320    0.8730   92.0230 O.3   248  INH248     -0.3864
     10  O4        47.0540   -0.0010   91.7860 O.3   248  INH248     -0.3865
     11  O5        47.1670    1.5390   95.0760 O.3   248  INH248     -0.3404
     12  O6        49.1670    2.1530   93.0900 O.3   248  INH248     -0.3924
     13  C7        45.9820   -0.4870   96.9840 C.3   248  INH248      0.1909
     14  C8        45.9320   -1.8380   97.7020 C.3   248  INH248      0.1342
     15  C9        44.4770   -1.9430   98.3430 C.3   248  INH248      0.1141
     16  C10       44.4250   -0.8410   99.4200 C.3   248  INH248      0.1119
     17  C11       44.5890    0.5730   98.7230 C.3   248  INH248      0.1130
     18  C12       44.5850    1.6960   99.7440 C.3   248  INH248      0.0730
     19  O7        46.0470   -2.7960   96.7240 O.3   248  INH248     -0.3841
     20  O8        44.3390   -3.1600   98.9980 O.3   248  INH248     -0.3864
     21  O9        43.1740   -0.8420  100.0820 O.3   248  INH248     -0.3865
     22  O10       45.8560    0.5680   98.0210 O.3   248  INH248     -0.3404
     23  O11       45.7530    1.5770  100.5310 O.3   248  INH248     -0.3924
     24  H1        45.5160    2.1680   96.2380 H     248  INH248      0.0938
     25  H2        44.9780    2.7360   93.8270 H     248  INH248      0.0671
     26  H3        44.9960   -0.3630   93.5230 H     248  INH248      0.0648
     27  H4        46.7300    1.9250   92.3680 H     248  INH248      0.0647
     28  H5        47.4140   -0.3740   94.3040 H     248  INH248      0.0647
     29  H6        49.4270    0.0940   93.1380 H     248  INH248      0.0584
     30  H7        49.5430    0.9290   94.7250 H     248  INH248      0.0584
     31  H8        42.8990    1.7570   93.9110 H     248  INH248      0.2101
     32  H9        43.7570    0.1360   91.6570 H     248  INH248      0.2100
     33  H10       46.5240    0.0920   91.0030 H     248  INH248      0.2100
     34  H11       48.7090    2.1230   92.2580 H     248  INH248      0.2095
     35  H12       47.0310   -0.4950   96.6530 H     248  INH248      0.0938
     36  H13       46.7210   -1.9350   98.4620 H     248  INH248      0.0671
     37  H14       43.6930   -1.8120   97.5830 H     248  INH248      0.0648
     38  H15       45.2330   -1.0010  100.1490 H     248  INH248      0.0647
     39  H16       43.7660    0.7300   98.0100 H     248  INH248      0.0647
     40  H17       43.6940    1.6150  100.3840 H     248  INH248      0.0584
     41  H18       44.5800    2.6680   99.2290 H     248  INH248      0.0584
     42  H19       46.9620   -2.7130   96.3370 H     248  INH248      0.2101
     43  H20       44.3670   -3.8650   98.3630 H     248  INH248      0.2100
     44  H21       43.0450   -1.6790  100.5120 H     248  INH248      0.2100
     45  H22       45.7700    2.2720  101.1780 H     248  INH248      0.2095
@<TRIPOS>BOND
     1     1    24    1
     2     1    11    1
     3     1     7    1
     4     1     2    1
     5     2    25    1
     6     2     8    1
     7     2     3    1
     8     3    26    1
     9     3     9    1
    10     3     4    1
    11     4    27    1
    12     4    10    1
    13     4     5    1
    14     5    28    1
    15     5    11    1
    16     5     6    1
    17     6    30    1
    18     6    29    1
    19     6    12    1
    20     7    13    1
    21     8    31    1
    22     9    32    1
    23    10    33    1
    24    12    34    1
    25    13    35    1
    26    13    22    1
    27    13    14    1
    28    14    36    1
    29    14    19    1
    30    14    15    1
    31    15    37    1
    32    15    20    1
    33    15    16    1
    34    16    38    1
    35    16    21    1
    36    16    17    1
    37    17    39    1
    38    17    22    1
    39    17    18    1
    40    18    41    1
    41    18    40    1
    42    18    23    1
    43    19    42    1
    44    20    43    1
    45    21    44    1
    46    23    45    1
