@<TRIPOS>MOLECULE
/tmp/ewbell/vina_2b1q_2b1q_lig/vina/vina5.pdbqt
 31 32 0 0 0
SMALL
GASTEIGER

@<TRIPOS>ATOM
      1  O1        47.8110    2.1440   96.6370 O.3   248  INH248     -0.3260
      2  C1        47.6370    0.8310   96.1910 C.3   248  INH248      0.2940
      3  O5        46.3440    0.6320   95.4670 O.3   248  INH248     -0.3480
      4  C5        46.2230    1.4360   94.2760 C.3   248  INH248      0.1790
      5  C4        47.4540    1.2200   93.3280 C.3   248  INH248      0.1800
      6  C3        48.7660    1.5630   94.0790 C.3   248  INH248      0.1830
      7  C2        48.8550    0.5580   95.2680 C.3   248  INH248      0.2040
      8  C6        44.8800    1.1100   93.6840 C.3   248  INH248      0.1980
      9  O6        44.4990    2.1880   92.8290 O.3   248  INH248     -0.3980
     10  H11       44.5330    3.0040   93.3170 H     248  INH248      0.2090
     11  O4        47.2460    2.0560   92.2470 O.3   248  INH248     -0.3900
     12  H10       48.0490    2.5250   92.0510 H     248  INH248      0.2100
     13  O3        49.8480    1.3540   93.2300 O.3   248  INH248     -0.3900
     14  H9        50.0170    0.4490   92.8290 H     248  INH248      0.2100
     15  O2        50.0110    0.7860   96.0120 O.3   248  INH248     -0.3880
     16  H8        49.9410    1.6240   96.4570 H     248  INH248      0.2100
     17  C7        47.7020    2.5150   98.0130 C.3   248  INH248      0.2940
     18  O10       47.3850    1.2010   98.6270 O.3   248  INH248     -0.3480
     19  C11       48.5410    0.3830   98.9300 C.3   248  INH248      0.1790
     20  C10       49.4530    1.2010   99.9340 C.3   248  INH248      0.1800
     21  C9        49.8550    2.5380   99.2780 C.3   248  INH248      0.1830
     22  C8        48.4870    3.3230   99.0500 C.3   248  INH248      0.2040
     23  C12       48.0830   -0.9280   99.5410 C.3   248  INH248      0.1980
     24  O11       48.9670   -1.9440   99.1130 O.3   248  INH248     -0.3980
     25  H22       48.6360   -2.3350   98.3120 H     248  INH248      0.2090
     26  O9        50.5950    0.4110  100.2060 O.3   248  INH248     -0.3900
     27  H21       50.9230    0.0400   99.3950 H     248  INH248      0.2100
     28  O8        50.6420    3.2220  100.1940 O.3   248  INH248     -0.3900
     29  H20       51.5580    3.0690   99.9990 H     248  INH248      0.2100
     30  O7        48.7720    4.5300   98.4590 O.3   248  INH248     -0.3880
     31  H19       49.7560    4.6700   98.5370 H     248  INH248      0.2100
@<TRIPOS>BOND
     1    12    11    1
     2    11     5    1
     3     9    10    1
     4     9     8    1
     5    14    13    1
     6    13     6    1
     7     5     6    1
     8     5     4    1
     9     8     4    1
    10     6     7    1
    11     4     3    1
    12     7    15    1
    13     7     2    1
    14     3     2    1
    15    15    16    1
    16     2     1    1
    17     1    17    1
    18    17    18    1
    19    17    22    1
    20    25    24    1
    21    30    31    1
    22    30    22    1
    23    18    19    1
    24    19    23    1
    25    19    20    1
    26    22    21    1
    27    24    23    1
    28    21    20    1
    29    21    28    1
    30    27    26    1
    31    20    26    1
    32    29    28    1
