@<TRIPOS>MOLECULE
/tmp/ewbell/vina_2b1q_2b1q_lig/vina/vina1.pdbqt
 31 32 0 0 0
SMALL
GASTEIGER

@<TRIPOS>ATOM
      1  O1        48.1180    1.8430   96.0150 O.3   248  INH248     -0.3260
      2  C1        48.0460    0.6590   95.2760 C.3   248  INH248      0.2940
      3  O5        46.7670   -0.0840   95.4960 O.3   248  INH248     -0.3480
      4  C5        45.5960    0.6590   95.1020 C.3   248  INH248      0.1790
      5  C4        45.7230    1.1590   93.6210 C.3   248  INH248      0.1800
      6  C3        46.9940    2.0330   93.4670 C.3   248  INH248      0.1830
      7  C2        48.1990    1.1010   93.7960 C.3   248  INH248      0.2040
      8  C6        44.4190   -0.2320   95.3900 C.3   248  INH248      0.1980
      9  O6        43.8820   -0.6730   94.1430 O.3   248  INH248     -0.3980
     10  H11       42.9410   -0.5430   94.1410 H     248  INH248      0.2090
     11  O4        44.5700    1.8760   93.3670 O.3   248  INH248     -0.3900
     12  H10       44.4040    2.4740   94.0870 H     248  INH248      0.2100
     13  O3        47.1000    2.4580   92.1460 O.3   248  INH248     -0.3900
     14  H9        47.1430    1.7920   91.3960 H     248  INH248      0.2100
     15  O2        49.3990    1.8010   93.6840 O.3   248  INH248     -0.3880
     16  H8        49.2360    2.7310   93.7970 H     248  INH248      0.2100
     17  C7        47.5090    1.9930   97.2980 C.3   248  INH248      0.2940
     18  O10       48.3020    1.0210   98.0930 O.3   248  INH248     -0.3480
     19  C11       49.5490    1.5440   98.6130 C.3   248  INH248      0.1790
     20  C10       49.1960    2.7820   99.5370 C.3   248  INH248      0.1800
     21  C9        48.4380    3.8350   98.7040 C.3   248  INH248      0.1830
     22  C8        47.0900    3.1190   98.2460 C.3   248  INH248      0.2040
     23  C12       50.2630    0.4570   99.3940 C.3   248  INH248      0.1980
     24  O11       51.5820    0.8940   99.6470 O.3   248  INH248     -0.3980
     25  H22       51.9720    1.2070   98.8400 H     248  INH248      0.2090
     26  O9        50.4180    3.3080  100.0220 O.3   248  INH248     -0.3900
     27  H21       50.4060    4.2550   99.9490 H     248  INH248      0.2100
     28  O8        48.1440    4.8930   99.5530 O.3   248  INH248     -0.3900
     29  H20       48.4980    4.7140  100.4150 H     248  INH248      0.2100
     30  O7        46.3630    4.0060   97.4890 O.3   248  INH248     -0.3880
     31  H19       46.9570    4.3200   96.7530 H     248  INH248      0.2100
@<TRIPOS>BOND
     1    14    13    1
     2    13     6    1
     3    11     5    1
     4    11    12    1
     5     6     5    1
     6     6     7    1
     7     5     4    1
     8    15     7    1
     9    15    16    1
    10     7     2    1
    11    10     9    1
    12     9     8    1
    13     4     8    1
    14     4     3    1
    15     2     3    1
    16     2     1    1
    17     1    17    1
    18    31    30    1
    19    17    18    1
    20    17    22    1
    21    30    22    1
    22    18    19    1
    23    22    21    1
    24    19    23    1
    25    19    20    1
    26    21    20    1
    27    21    28    1
    28    25    24    1
    29    23    24    1
    30    20    26    1
    31    28    29    1
    32    27    26    1
