@<TRIPOS>MOLECULE
/tmp/ewbell/vina_2b1q_2b1q_lig/vina/vina2.pdbqt
 31 32 0 0 0
SMALL
GASTEIGER

@<TRIPOS>ATOM
      1  O1        47.9200    1.8270   96.4170 O.3   248  INH248     -0.3260
      2  C1        47.3510    1.4310   97.6300 C.3   248  INH248      0.2940
      3  O5        48.2840    0.6190   98.4700 O.3   248  INH248     -0.3480
      4  C5        49.4810    1.3280   98.8480 C.3   248  INH248      0.1790
      5  C4        49.1280    2.6940   99.5350 C.3   248  INH248      0.1800
      6  C3        48.2680    3.5590   98.5780 C.3   248  INH248      0.1830
      7  C2        46.9550    2.7550   98.3370 C.3   248  INH248      0.2040
      8  C6        50.2900    0.3710   99.6790 C.3   248  INH248      0.1980
      9  O6        51.6210    0.8820   99.7710 O.3   248  INH248     -0.3980
     10  H11       51.6340    1.7830   99.4700 H     248  INH248      0.2090
     11  O4        50.3400    3.2930   99.8220 O.3   248  INH248     -0.3900
     12  H10       50.8670    2.7040  100.3480 H     248  INH248      0.2100
     13  O3        47.9530    4.7600   99.2060 O.3   248  INH248     -0.3900
     14  H9        48.2660    4.9460  100.1410 H     248  INH248      0.2100
     15  O2        46.1060    3.4550   97.4810 O.3   248  INH248     -0.3880
     16  H8        45.7330    2.8550   96.8440 H     248  INH248      0.2100
     17  C7        47.9110    1.0010   95.2510 C.3   248  INH248      0.2940
     18  O10       46.6270    0.2790   95.4370 O.3   248  INH248     -0.3480
     19  C11       45.4620    0.9890   94.9530 C.3   248  INH248      0.1790
     20  C10       45.6740    1.2510   93.4040 C.3   248  INH248      0.1800
     21  C9        46.9650    2.0680   93.2020 C.3   248  INH248      0.1830
     22  C8        48.1410    1.1390   93.7440 C.3   248  INH248      0.2040
     23  C12       44.2220    0.1530   95.2070 C.3   248  INH248      0.1980
     24  O11       44.0430   -0.7140   94.1060 O.3   248  INH248     -0.3980
     25  H22       43.6230   -0.2420   93.3960 H     248  INH248      0.2090
     26  O9        44.5460    1.9700   92.9400 O.3   248  INH248     -0.3900
     27  H21       43.8020    1.3820   92.8730 H     248  INH248      0.2100
     28  O8        47.1140    2.2650   91.8360 O.3   248  INH248     -0.3900
     29  H20       47.5910    3.0720   91.6830 H     248  INH248      0.2100
     30  O7        49.3300    1.8110   93.5980 O.3   248  INH248     -0.3880
     31  H19       50.0610    1.1600   93.7860 H     248  INH248      0.2100
@<TRIPOS>BOND
     1    29    28    1
     2    28    21    1
     3    27    26    1
     4    26    20    1
     5    21    20    1
     6    21    22    1
     7    25    24    1
     8    20    19    1
     9    30    22    1
    10    30    31    1
    11    22    17    1
    12    24    23    1
    13    19    23    1
    14    19    18    1
    15    17    18    1
    16    17     1    1
    17     1     2    1
    18    16    15    1
    19    15     7    1
    20     2     7    1
    21     2     3    1
    22     7     6    1
    23     3     4    1
    24     6    13    1
    25     6     5    1
    26     4     5    1
    27     4     8    1
    28    13    14    1
    29    10     9    1
    30     5    11    1
    31     8     9    1
    32    11    12    1
