@<TRIPOS>MOLECULE
/tmp/ewbell/vina_2b1q_2b1q_lig/vina/vina4.pdbqt
 31 32 0 0 0
SMALL
GASTEIGER

@<TRIPOS>ATOM
      1  O1        47.4670    0.5910   96.9530 O.3   248  INH248     -0.3260
      2  C1        46.3300    1.2550   96.4850 C.3   248  INH248      0.2940
      3  O5        46.3360    1.4380   95.0010 O.3   248  INH248     -0.3480
      4  C5        46.3550    0.1960   94.2690 C.3   248  INH248      0.1790
      5  C4        45.1840   -0.7420   94.7280 C.3   248  INH248      0.1800
      6  C3        45.2900   -1.0110   96.2510 C.3   248  INH248      0.1830
      7  C2        45.1350    0.3760   96.9440 C.3   248  INH248      0.2040
      8  C6        46.3580    0.5680   92.8120 C.3   248  INH248      0.1980
      9  O6        47.1340   -0.4030   92.1090 O.3   248  INH248     -0.3980
     10  H11       47.7800    0.0410   91.5700 H     248  INH248      0.2090
     11  O4        45.3200   -1.9010   93.9890 O.3   248  INH248     -0.3900
     12  H10       44.6000   -1.9700   93.3730 H     248  INH248      0.2100
     13  O3        44.2390   -1.8330   96.6460 O.3   248  INH248     -0.3900
     14  H9        43.3850   -1.4380   96.9960 H     248  INH248      0.2100
     15  O2        45.2180    0.2400   98.3290 O.3   248  INH248     -0.3880
     16  H8        45.4490    1.0770   98.7160 H     248  INH248      0.2100
     17  C7        48.7830    1.1310   96.8330 C.3   248  INH248      0.2940
     18  O10       48.5630    2.5060   97.3500 O.3   248  INH248     -0.3480
     19  C11       48.6360    2.6250   98.7920 C.3   248  INH248      0.1790
     20  C10       50.0790    2.1440   99.2380 C.3   248  INH248      0.1800
     21  C9        50.2920    0.6890   98.7740 C.3   248  INH248      0.1830
     22  C8        50.2210    0.7400   97.1820 C.3   248  INH248      0.2040
     23  C12       48.3870    4.0680   99.1900 C.3   248  INH248      0.1980
     24  O11       48.0070    4.7830   98.0310 O.3   248  INH248     -0.3980
     25  H22       48.5280    4.4890   97.2930 H     248  INH248      0.2090
     26  O9        50.1360    2.2360  100.6490 O.3   248  INH248     -0.3900
     27  H21       50.1430    3.1510  100.9060 H     248  INH248      0.2100
     28  O8        51.5660    0.3150   99.1760 O.3   248  INH248     -0.3900
     29  H20       51.7410    0.6700  100.0390 H     248  INH248      0.2100
     30  O7        50.4000   -0.5330   96.6980 O.3   248  INH248     -0.3880
     31  H19       51.3830   -0.7000   96.6660 H     248  INH248      0.2100
@<TRIPOS>BOND
     1    10     9    1
     2     9     8    1
     3     8     4    1
     4    12    11    1
     5    11     5    1
     6     4     5    1
     7     4     3    1
     8     5     6    1
     9     3     2    1
    10     6    13    1
    11     6     7    1
    12     2     7    1
    13     2     1    1
    14    13    14    1
    15    31    30    1
    16    30    22    1
    17    17     1    1
    18    17    22    1
    19    17    18    1
    20     7    15    1
    21    22    21    1
    22    25    24    1
    23    18    19    1
    24    24    23    1
    25    15    16    1
    26    21    28    1
    27    21    20    1
    28    19    23    1
    29    19    20    1
    30    28    29    1
    31    20    26    1
    32    26    27    1
