@<TRIPOS>MOLECULE
/tmp/ewbell/vina_2b1q_2b1q_lig/vina/vina3.pdbqt
 31 32 0 0 0
SMALL
GASTEIGER

@<TRIPOS>ATOM
      1  O1        45.4390    1.6820   96.8610 O.3   248  INH248     -0.3260
      2  C1        45.4240    2.2930   95.6040 C.3   248  INH248      0.2940
      3  O5        46.6950    2.0850   94.8450 O.3   248  INH248     -0.3480
      4  C5        46.9780    0.6990   94.5680 C.3   248  INH248      0.1790
      5  C4        45.7620    0.0110   93.8550 C.3   248  INH248      0.1800
      6  C3        44.4930    0.1370   94.7370 C.3   248  INH248      0.1830
      7  C2        44.2110    1.6640   94.8680 C.3   248  INH248      0.2040
      8  C6        48.2750    0.6800   93.8070 C.3   248  INH248      0.1980
      9  O6        49.3210    0.3530   94.7230 O.3   248  INH248     -0.3980
     10  H11       50.0720    0.9120   94.5560 H     248  INH248      0.2090
     11  O4        46.1320   -1.3070   93.6700 O.3   248  INH248     -0.3900
     12  H10       46.1410   -1.5060   92.7410 H     248  INH248      0.2100
     13  O3        43.4210   -0.4660   94.0860 O.3   248  INH248     -0.3900
     14  H9        42.9360   -1.2380   94.5070 H     248  INH248      0.2100
     15  O2        43.0800    1.8840   95.6500 O.3   248  INH248     -0.3880
     16  H8        42.3410    1.4130   95.2800 H     248  INH248      0.2100
     17  C7        46.1010    2.2520   97.9920 C.3   248  INH248      0.2940
     18  O10       46.8490    1.0710   98.4940 O.3   248  INH248     -0.3480
     19  C11       48.1250    0.8470   97.8480 C.3   248  INH248      0.1790
     20  C10       49.0100    2.1410   98.0810 C.3   248  INH248      0.1800
     21  C9        48.2800    3.3650   97.4940 C.3   248  INH248      0.1830
     22  C8        46.9300    3.4920   98.3320 C.3   248  INH248      0.2040
     23  C12       48.7800   -0.3850   98.4430 C.3   248  INH248      0.1980
     24  O11       49.6210   -0.9530   97.4590 O.3   248  INH248     -0.3980
     25  H22       50.1970   -0.2830   97.1110 H     248  INH248      0.2090
     26  O9        50.2460    1.9290   97.4240 O.3   248  INH248     -0.3900
     27  H21       50.2590    1.0570   97.0470 H     248  INH248      0.2100
     28  O8        49.0850    4.4720   97.7280 O.3   248  INH248     -0.3900
     29  H20       48.5390    5.2380   97.8520 H     248  INH248      0.2100
     30  O7        46.2220    4.5690   97.8550 O.3   248  INH248     -0.3880
     31  H19       45.3110    4.5230   98.2580 H     248  INH248      0.2100
@<TRIPOS>BOND
     1    12    11    1
     2    11     5    1
     3     8     4    1
     4     8     9    1
     5     5     4    1
     6     5     6    1
     7    13    14    1
     8    13     6    1
     9    10     9    1
    10     4     3    1
    11     6     7    1
    12     3     2    1
    13     7     2    1
    14     7    15    1
    15    16    15    1
    16     2     1    1
    17     1    17    1
    18    27    26    1
    19    25    24    1
    20    26    20    1
    21    24    23    1
    22    21    28    1
    23    21    20    1
    24    21    22    1
    25    28    29    1
    26    19    20    1
    27    19    23    1
    28    19    18    1
    29    30    31    1
    30    30    22    1
    31    17    22    1
    32    17    18    1
