@<TRIPOS>MOLECULE
./ligand/2d3z_lig.pdb
 39 41 0 0 0
SMALL
GASTEIGER

@<TRIPOS>ATOM
      1  C1       -13.1090   31.2420  -28.0560 C.ar  564  INH564     -0.0259
      2  C2       -13.0810   30.2160  -27.0660 C.ar  564  INH564      0.1234
      3  C3       -11.8490   29.5630  -26.7940 C.ar  564  INH564     -0.0259
      4  C4       -10.6680   29.9280  -27.4930 C.ar  564  INH564     -0.0508
      5  C5       -10.6800   30.9560  -28.4860 C.ar  564  INH564     -0.0111
      6  C6       -11.9220   31.6100  -28.7580 C.ar  564  INH564     -0.0508
      7  C7        -7.0030   31.7310  -29.7420 C.ar  564  INH564      0.1232
      8  C8        -7.8300   32.0960  -30.7970 C.ar  564  INH564      0.0699
      9  C9        -9.2210   31.8620  -30.4750 C.ar  564  INH564     -0.0237
     10  C10       -9.4190   31.3310  -29.1990 C.ar  564  INH564      0.0220
     11  S1        -7.9030   31.1290  -28.4360 S.2   564  INH564     -0.0798
     12  F1       -14.1700   29.8790  -26.4150 F     564  INH564     -0.2055
     13  C11       -5.5190   31.8370  -29.7240 C.2   564  INH564      0.3949
     14  O1        -4.9030   31.2050  -28.8370 O.co2 564  INH564     -0.2399
     15  O2        -4.9570   32.5540  -30.5790 O.co2 564  INH564     -0.2399
     16  N1        -7.3590   32.6440  -32.0730 N.pl3 564  INH564     -0.2149
     17  S2        -8.0710   34.0140  -32.7880 S.O2  564  INH564      0.0724
     18  C12       -7.3120   36.1700  -31.1590 C.ar  564  INH564     -0.0348
     19  C13       -8.3930   35.3650  -31.6380 C.ar  564  INH564      0.1085
     20  C14       -9.7260   35.6310  -31.1980 C.ar  564  INH564     -0.0348
     21  C15       -9.9730   36.6930  -30.2830 C.ar  564  INH564     -0.0570
     22  C16       -8.8960   37.4920  -29.8060 C.ar  564  INH564     -0.0503
     23  C17       -7.5660   37.2280  -30.2460 C.ar  564  INH564     -0.0570
     24  C18       -9.1620   38.6100  -28.8360 C.3   564  INH564     -0.0397
     25  O3        -9.3260   33.5540  -33.3770 O.2   564  INH564     -0.1500
     26  O4        -7.1290   34.4750  -33.8020 O.2   564  INH564     -0.1500
     27  H1       -14.0420   31.7480  -28.2780 H     564  INH564      0.0646
     28  H2       -11.8100   28.7790  -26.0460 H     564  INH564      0.0646
     29  H3        -9.7390   29.4170  -27.2690 H     564  INH564      0.0625
     30  H4       -11.9630   32.3940  -29.5060 H     564  INH564      0.0625
     31  H5       -10.0370   32.0800  -31.1630 H     564  INH564      0.0648
     32  H6        -6.5710   32.1850  -32.5520 H     564  INH564      0.1737
     33  H7        -6.3000   35.9730  -31.4930 H     564  INH564      0.0637
     34  H8       -10.5480   35.0250  -31.5610 H     564  INH564      0.0637
     35  H9       -10.9840   36.8940  -29.9480 H     564  INH564      0.0621
     36  H10       -6.7460   37.8370  -29.8830 H     564  INH564      0.0621
     37  H11       -8.2150   39.1100  -28.5840 H     564  INH564      0.0278
     38  H12       -9.6160   38.2010  -27.9210 H     564  INH564      0.0278
     39  H13       -9.8500   39.3370  -29.2930 H     564  INH564      0.0278
@<TRIPOS>BOND
     1     1     6   ar
     2     1    27    1
     3     1     2   ar
     4     2    12    1
     5     2     3   ar
     6     3    28    1
     7     3     4   ar
     8     4     5   ar
     9     4    29    1
    10     5    10    1
    11     5     6   ar
    12     6    30    1
    13     7     8   ar
    14     7    11   ar
    15     7    13    1
    16     8    16    1
    17     8     9   ar
    18     9    31    1
    19     9    10   ar
    20    10    11   ar
    21    13    14   ar
    22    13    15   ar
    23    16    17    1
    24    16    32    1
    25    17    25    2
    26    17    19    1
    27    17    26    2
    28    18    19   ar
    29    18    23   ar
    30    18    33    1
    31    19    20   ar
    32    20    34    1
    33    20    21   ar
    34    21    35    1
    35    21    22   ar
    36    22    24    1
    37    22    23   ar
    38    23    36    1
    39    24    39    1
    40    24    38    1
    41    24    37    1
