@<TRIPOS>MOLECULE
/tmp/ewbell/vina_2d3z_2d3z_lig/vina/vina3.pdbqt
 28 30 0 0 0
SMALL
GASTEIGER

@<TRIPOS>ATOM
      1  C7        -4.6250   33.7940  -34.5600 C.ar  564  INH564      0.1060
      2  C8        -5.6600   34.5790  -34.0670 C.ar  564  INH564      0.0670
      3  C9        -5.2970   35.9800  -34.0660 C.ar  564  INH564      0.0510
      4  C10       -4.0120   36.2260  -34.5520 C.ar  564  INH564      0.0180
      5  S1        -3.2850   34.7420  -34.9880 S.2   564  INH564     -0.0810
      6  N1        -6.9510   34.0600  -33.6040 N.pl3 564  INH564     -0.2790
      7  H6        -7.6900   33.8740  -34.2960 H     564  INH564      0.1790
      8  S2        -7.2680   33.7580  -31.9600 S.O2  564  INH564      0.2630
      9  O3        -5.9820   33.4190  -31.3580 O.2   564  INH564     -0.2000
     10  O4        -8.1990   32.6350  -31.9290 O.2   564  INH564     -0.2000
     11  C13       -8.0080   35.1480  -31.0820 C.ar  564  INH564      0.0790
     12  C12       -9.4290   35.3160  -31.0760 C.ar  564  INH564      0.0260
     13  C17      -10.0100   36.4180  -30.3920 C.ar  564  INH564      0.0080
     14  C16       -9.1830   37.3560  -29.7100 C.ar  564  INH564     -0.0620
     15  C15       -7.7680   37.1900  -29.7140 C.ar  564  INH564      0.0080
     16  C18       -9.8000   38.5230  -28.9900 C.3   564  INH564      0.0480
     17  C14       -7.1790   36.0890  -30.3970 C.ar  564  INH564      0.0260
     18  C11       -4.6510   32.3140  -34.7050 C.2   564  INH564      0.1850
     19  O1        -4.4170   31.8380  -35.8390 O.2   564  INH564     -0.6460
     20  O2        -4.9140   31.6160  -33.7030 O.3   564  INH564     -0.7720
     21  H         -4.5970   31.8690  -32.8590 H     564  INH564      0.1670
     22  C5        -3.2660   37.5120  -34.7230 C.ar  564  INH564     -0.0190
     23  C4        -2.1400   37.5820  -35.6010 C.ar  564  INH564      0.0160
     24  C3        -1.4250   38.7930  -35.7900 C.ar  564  INH564      0.0430
     25  C2        -1.8130   39.9760  -35.1060 C.ar  564  INH564      0.1160
     26  C1        -2.9320   39.9220  -34.2250 C.ar  564  INH564      0.0430
     27  F1        -1.1510   41.0960  -35.2860 F     564  INH564     -0.2060
     28  C6        -3.6530   38.7040  -34.0350 C.ar  564  INH564      0.0160
@<TRIPOS>BOND
     1    19    18    2
     2    24    23   ar
     3    24    25   ar
     4    23    22   ar
     5    27    25    1
     6    25    26   ar
     7     5     1   ar
     8     5     4   ar
     9    22     4    1
    10    22    28   ar
    11    18     1    1
    12    18    20    1
    13     1     2   ar
    14     4     3   ar
    15     7     6    1
    16    26    28   ar
    17     2     3   ar
    18     2     6    1
    19    20    21    1
    20     6     8    1
    21     8    10    2
    22     8     9    2
    23     8    11    1
    24    11    12   ar
    25    11    17   ar
    26    12    13   ar
    27    17    15   ar
    28    13    14   ar
    29    15    14   ar
    30    14    16    1
