@<TRIPOS>MOLECULE
/tmp/ewbell/vina_2d3z_2d3z_lig/vina/vina4.pdbqt
 28 30 0 0 0
SMALL
GASTEIGER

@<TRIPOS>ATOM
      1  C7        -6.5410   35.2080  -33.8170 C.ar  564  INH564      0.1060
      2  C8        -6.9020   36.4430  -33.2920 C.ar  564  INH564      0.0670
      3  C9        -5.8510   37.4190  -33.4830 C.ar  564  INH564      0.0510
      4  C10       -4.7290   36.9120  -34.1410 C.ar  564  INH564      0.0180
      5  S1        -4.9890   35.2610  -34.5000 S.2   564  INH564     -0.0810
      6  N1        -8.1780   36.7230  -32.6260 N.pl3 564  INH564     -0.2790
      7  H6        -8.9490   37.1260  -33.1780 H     564  INH564      0.1790
      8  S2        -8.4260   36.4080  -30.9730 S.O2  564  INH564      0.2630
      9  O3        -9.7620   36.9100  -30.6640 O.2   564  INH564     -0.2000
     10  O4        -7.3880   37.1450  -30.2620 O.2   564  INH564     -0.2000
     11  C13       -8.3080   34.6650  -30.5270 C.ar  564  INH564      0.0790
     12  C12       -9.4350   33.8020  -30.7050 C.ar  564  INH564      0.0260
     13  C17       -9.3440   32.4320  -30.3430 C.ar  564  INH564      0.0080
     14  C16       -8.1310   31.9110  -29.8060 C.ar  564  INH564     -0.0620
     15  C15       -7.0070   32.7670  -29.6300 C.ar  564  INH564      0.0080
     16  C18       -8.0380   30.4600  -29.4210 C.3   564  INH564      0.0480
     17  C14       -7.0920   34.1420  -29.9890 C.ar  564  INH564      0.0260
     18  C11       -7.3780   33.9780  -33.8000 C.2   564  INH564      0.1850
     19  O1        -8.5700   34.0820  -34.1640 O.2   564  INH564     -0.6460
     20  O2        -6.8630   32.9060  -33.4140 O.3   564  INH564     -0.7720
     21  H         -7.3170   32.0970  -33.5390 H     564  INH564      0.1670
     22  C5        -3.4480   37.5780  -34.5360 C.ar  564  INH564     -0.0190
     23  C4        -2.4680   36.8660  -35.2940 C.ar  564  INH564      0.0160
     24  C3        -1.2520   37.4800  -35.6910 C.ar  564  INH564      0.0430
     25  C2        -0.9760   38.8290  -35.3420 C.ar  564  INH564      0.1160
     26  C1        -1.9420   39.5520  -34.5830 C.ar  564  INH564      0.0430
     27  F1         0.1490   39.3960  -35.7140 F     564  INH564     -0.2060
     28  C6        -3.1670   38.9350  -34.1850 C.ar  564  INH564      0.0160
@<TRIPOS>BOND
     1    27    25    1
     2    24    25   ar
     3    24    23   ar
     4    25    26   ar
     5    23    22   ar
     6    26    28   ar
     7    22    28   ar
     8    22     4    1
     9     5     4   ar
    10     5     1   ar
    11    19    18    2
    12     4     3   ar
    13     1    18    1
    14     1     2   ar
    15    18    20    1
    16    21    20    1
    17     3     2   ar
    18     2     6    1
    19     7     6    1
    20     6     8    1
    21     8     9    2
    22     8    11    1
    23     8    10    2
    24    12    11   ar
    25    12    13   ar
    26    11    17   ar
    27    13    14   ar
    28    17    15   ar
    29    14    15   ar
    30    14    16    1
