@<TRIPOS>MOLECULE
/tmp/ewbell/vina_2d3z_2d3z_lig/vina/vina2.pdbqt
 28 30 0 0 0
SMALL
GASTEIGER

@<TRIPOS>ATOM
      1  C7        -7.2920   32.0790  -30.0130 C.ar  564  INH564      0.1060
      2  C8        -8.2190   32.3030  -31.0230 C.ar  564  INH564      0.0670
      3  C9        -9.5570   31.9690  -30.5860 C.ar  564  INH564      0.0510
      4  C10       -9.6180   31.5040  -29.2710 C.ar  564  INH564      0.0180
      5  S1        -8.0410   31.4840  -28.6120 S.2   564  INH564     -0.0810
      6  N1        -7.8880   32.8080  -32.3590 N.pl3 564  INH564     -0.2790
      7  H6        -7.2460   32.2650  -32.9520 H     564  INH564      0.1790
      8  S2        -8.5310   34.2640  -32.9610 S.O2  564  INH564      0.2630
      9  O3        -9.7750   33.9070  -33.6350 O.2   564  INH564     -0.2000
     10  O4        -7.5370   34.7890  -33.8920 O.2   564  INH564     -0.2000
     11  C13       -8.8540   35.5080  -31.6960 C.ar  564  INH564      0.0790
     12  C12      -10.1690   35.6490  -31.1500 C.ar  564  INH564      0.0260
     13  C17      -10.4240   36.6360  -30.1620 C.ar  564  INH564      0.0080
     14  C16       -9.3740   37.4870  -29.7090 C.ar  564  INH564     -0.0620
     15  C15       -8.0650   37.3480  -30.2510 C.ar  564  INH564      0.0080
     16  C18       -9.6490   38.5340  -28.6650 C.3   564  INH564      0.0480
     17  C14       -7.8020   36.3610  -31.2420 C.ar  564  INH564      0.0260
     18  C11       -5.8260   32.3150  -30.1100 C.2   564  INH564      0.1850
     19  O1        -5.4320   33.2000  -30.9030 O.2   564  INH564     -0.6460
     20  O2        -5.0570   31.6200  -29.4130 O.3   564  INH564     -0.7720
     21  H         -4.3560   31.1490  -29.8160 H     564  INH564      0.1670
     22  C5       -10.7880   31.0660  -28.4470 C.ar  564  INH564     -0.0190
     23  C4       -10.6430   30.0120  -27.4930 C.ar  564  INH564      0.0160
     24  C3       -11.7340   29.5870  -26.6900 C.ar  564  INH564      0.0430
     25  C2       -13.0070   30.2050  -26.8160 C.ar  564  INH564      0.1160
     26  C1       -13.1680   31.2560  -27.7660 C.ar  564  INH564      0.0430
     27  F1       -14.0140   29.8120  -26.0690 F     564  INH564     -0.2060
     28  C6       -12.0700   31.6840  -28.5720 C.ar  564  INH564      0.0160
@<TRIPOS>BOND
     1    10     8    2
     2     9     8    2
     3     8     6    1
     4     8    11    1
     5     7     6    1
     6     6     2    1
     7    11    17   ar
     8    11    12   ar
     9    17    15   ar
    10    12    13   ar
    11     2     3   ar
    12     2     1   ar
    13    19    18    2
    14     3     4   ar
    15    15    14   ar
    16    13    14   ar
    17    18     1    1
    18    18    20    1
    19     1     5   ar
    20    21    20    1
    21    14    16    1
    22     4     5   ar
    23     4    22    1
    24    28    22   ar
    25    28    26   ar
    26    22    23   ar
    27    26    25   ar
    28    23    24   ar
    29    25    24   ar
    30    25    27    1
