@<TRIPOS>MOLECULE
/tmp/ewbell/vina_2d3z_2d3z_lig/vina/vina1.pdbqt
 28 30 0 0 0
SMALL
GASTEIGER

@<TRIPOS>ATOM
      1  C7        -7.3140   32.1120  -29.9840 C.ar  564  INH564      0.1060
      2  C8        -8.2310   32.3090  -31.0090 C.ar  564  INH564      0.0670
      3  C9        -9.5690   31.9560  -30.5870 C.ar  564  INH564      0.0510
      4  C10       -9.6400   31.5040  -29.2680 C.ar  564  INH564      0.0180
      5  S1        -8.0720   31.5190  -28.5870 S.2   564  INH564     -0.0810
      6  N1        -7.8910   32.8070  -32.3460 N.pl3 564  INH564     -0.2790
      7  H6        -7.2440   32.2600  -32.9310 H     564  INH564      0.1790
      8  S2        -8.5300   34.2590  -32.9620 S.O2  564  INH564      0.2630
      9  O3        -9.7710   33.8970  -33.6400 O.2   564  INH564     -0.2000
     10  O4        -7.5310   34.7760  -33.8900 O.2   564  INH564     -0.2000
     11  C13       -8.8590   35.5120  -31.7070 C.ar  564  INH564      0.0790
     12  C12       -7.8050   36.3660  -31.2550 C.ar  564  INH564      0.0260
     13  C17       -8.0640   37.3460  -30.2590 C.ar  564  INH564      0.0080
     14  C16       -9.3720   37.4830  -29.7100 C.ar  564  INH564     -0.0620
     15  C15      -10.4230   36.6350  -30.1610 C.ar  564  INH564      0.0080
     16  C18       -9.6420   38.5190  -28.6540 C.3   564  INH564      0.0480
     17  C14      -10.1710   35.6510  -31.1570 C.ar  564  INH564      0.0260
     18  C11       -5.8520   32.3730  -30.0640 C.2   564  INH564      0.1850
     19  O1        -5.1000   31.6980  -29.3250 O.2   564  INH564     -0.6460
     20  O2        -5.4410   33.2550  -30.8480 O.3   564  INH564     -0.7720
     21  H         -5.9420   34.0340  -30.9820 H     564  INH564      0.1670
     22  C5       -10.8130   31.0540  -28.4550 C.ar  564  INH564     -0.0190
     23  C4       -10.6640   30.0090  -27.4920 C.ar  564  INH564      0.0160
     24  C3       -11.7580   29.5730  -26.7000 C.ar  564  INH564      0.0430
     25  C2       -13.0400   30.1700  -26.8460 C.ar  564  INH564      0.1160
     26  C1       -13.2040   31.2120  -27.8050 C.ar  564  INH564      0.0430
     27  F1       -14.0490   29.7680  -26.1090 F     564  INH564     -0.2060
     28  C6       -12.1030   31.6510  -28.6010 C.ar  564  INH564      0.0160
@<TRIPOS>BOND
     1    10     8    2
     2     9     8    2
     3     8     6    1
     4     8    11    1
     5     7     6    1
     6     6     2    1
     7    11    12   ar
     8    11    17   ar
     9    12    13   ar
    10    17    15   ar
    11     2     3   ar
    12     2     1   ar
    13    21    20    1
    14    20    18    1
    15     3     4   ar
    16    13    14   ar
    17    15    14   ar
    18    18     1    1
    19    18    19    2
    20     1     5   ar
    21    14    16    1
    22     4     5   ar
    23     4    22    1
    24    28    22   ar
    25    28    26   ar
    26    22    23   ar
    27    26    25   ar
    28    23    24   ar
    29    25    24   ar
    30    25    27    1
