@<TRIPOS>MOLECULE
/tmp/ewbell/vina_2d3z_2d3z_lig/vina/vina5.pdbqt
 28 30 0 0 0
SMALL
GASTEIGER

@<TRIPOS>ATOM
      1  C7        -7.3930   32.1500  -29.8130 C.ar  564  INH564      0.1060
      2  C8        -8.3090   32.5250  -30.7870 C.ar  564  INH564      0.0670
      3  C9        -9.6580   32.1710  -30.4000 C.ar  564  INH564      0.0510
      4  C10       -9.7360   31.5420  -29.1560 C.ar  564  INH564      0.0180
      5  S1        -8.1640   31.3980  -28.5020 S.2   564  INH564     -0.0810
      6  N1        -7.9600   33.1900  -32.0470 N.pl3 564  INH564     -0.2790
      7  H6        -7.4790   32.6490  -32.7790 H     564  INH564      0.1790
      8  S2        -8.3210   34.8280  -32.3370 S.O2  564  INH564      0.2630
      9  O3        -8.8420   35.3540  -31.0780 O.2   564  INH564     -0.2000
     10  O4        -9.3280   34.8380  -33.3920 O.2   564  INH564     -0.2000
     11  C13       -6.9090   35.8120  -32.8740 C.ar  564  INH564      0.0790
     12  C12       -6.5150   36.9670  -32.1260 C.ar  564  INH564      0.0260
     13  C17       -5.4090   37.7470  -32.5570 C.ar  564  INH564      0.0080
     14  C16       -4.6870   37.3830  -33.7310 C.ar  564  INH564     -0.0620
     15  C15       -5.0770   36.2330  -34.4750 C.ar  564  INH564      0.0080
     16  C18       -3.5190   38.2130  -34.1860 C.3   564  INH564      0.0480
     17  C14       -6.1840   35.4470  -34.0500 C.ar  564  INH564      0.0260
     18  C11       -5.9210   32.3610  -29.8760 C.2   564  INH564      0.1850
     19  O1        -5.1980   31.6110  -29.1840 O.2   564  INH564     -0.6460
     20  O2        -5.4760   33.2760  -30.6010 O.3   564  INH564     -0.7720
     21  H         -5.8730   33.4510  -31.4310 H     564  INH564      0.1670
     22  C5       -10.9200   31.0300  -28.3980 C.ar  564  INH564     -0.0190
     23  C4       -10.7700   29.9600  -27.4630 C.ar  564  INH564      0.0160
     24  C3       -11.8750   29.4650  -26.7220 C.ar  564  INH564      0.0430
     25  C2       -13.1690   30.0270  -26.8930 C.ar  564  INH564      0.1160
     26  C1       -13.3350   31.0940  -27.8240 C.ar  564  INH564      0.0430
     27  F1       -14.1890   29.5700  -26.2030 F     564  INH564     -0.2060
     28  C6       -12.2240   31.5920  -28.5680 C.ar  564  INH564      0.0160
@<TRIPOS>BOND
     1    15    17   ar
     2    15    14   ar
     3    16    14    1
     4    17    11   ar
     5    14    13   ar
     6    10     8    2
     7    11     8    1
     8    11    12   ar
     9     7     6    1
    10    13    12   ar
    11     8     6    1
    12     8     9    2
    13     6     2    1
    14    21    20    1
    15     2     3   ar
    16     2     1   ar
    17    20    18    1
    18     3     4   ar
    19    18     1    1
    20    18    19    2
    21     1     5   ar
    22     4     5   ar
    23     4    22    1
    24    28    22   ar
    25    28    26   ar
    26    22    23   ar
    27    26    25   ar
    28    23    24   ar
    29    25    24   ar
    30    25    27    1
