@<TRIPOS>MOLECULE
./ligand/2p98_lig.pdb
 27 29 0 0 0
SMALL
GASTEIGER

@<TRIPOS>ATOM
      1  C1        -1.4350    0.7620   10.3750 C.ar  266  INH266      0.0417
      2  N1        -2.7440    0.5730   10.2310 N.ar  266  INH266     -0.3053
      3  C2        -3.8490    0.9390   11.0090 C.ar  266  INH266      0.0118
      4  C3        -5.1300    0.6010   10.5880 C.ar  266  INH266     -0.0373
      5  C4        -5.3150   -0.0980    9.3990 C.ar  266  INH266     -0.0130
      6  C5        -6.5990   -0.4280    8.9820 C.ar  266  INH266     -0.0539
      7  C6        -6.7920   -1.1240    7.7940 C.ar  266  INH266     -0.0612
      8  C7        -5.6960   -1.4910    7.0190 C.ar  266  INH266     -0.0611
      9  C8        -4.4110   -1.1620    7.4340 C.ar  266  INH266     -0.0505
     10  C9        -4.2190   -0.4650    8.6230 C.ar  266  INH266      0.0250
     11  C10       -2.9350   -0.1310    9.0360 C.ar  266  INH266      0.1462
     12  N2        -1.7340   -0.3400    8.5050 N.ar  266  INH266     -0.2225
     13  C11       -0.8390    0.2080    9.3240 C.ar  266  INH266      0.1453
     14  C12        0.6680    0.1970    9.0700 C.2   266  INH266      0.2772
     15  O1         1.0990    0.0330    7.9310 O.2   266  INH266     -0.2672
     16  N3         1.4400    0.3330   10.1450 N.am  266  INH266     -0.2483
     17  N4         2.2740    1.3960   10.3100 N.3   266  INH266     -0.2541
     18  H1        -0.9430    1.2750   11.2000 H     266  INH266      0.0836
     19  H2        -3.7060    1.4860   11.9400 H     266  INH266      0.0813
     20  H3        -5.9920    0.8840   11.1910 H     266  INH266      0.0638
     21  H4        -7.4530   -0.1420    9.5850 H     266  INH266      0.0624
     22  H5        -7.7950   -1.3800    7.4720 H     266  INH266      0.0618
     23  H6        -5.8440   -2.0330    6.0920 H     266  INH266      0.0618
     24  H7        -3.5570   -1.4490    6.8310 H     266  INH266      0.0625
     25  H8         1.4060   -0.3700   10.8560 H     266  INH266      0.1691
     26  H9         2.7650    1.3050   11.1860 H     266  INH266      0.1405
     27  H10        1.7360    2.2480   10.3130 H     266  INH266      0.1405
@<TRIPOS>BOND
     1     1    18    1
     2     1    13   ar
     3     1     2   ar
     4     2    11   ar
     5     2     3   ar
     6     3    19    1
     7     3     4   ar
     8     4    20    1
     9     4     5   ar
    10     5    10   ar
    11     5     6   ar
    12     6    21    1
    13     6     7   ar
    14     7    22    1
    15     7     8   ar
    16     8    23    1
    17     8     9   ar
    18     9    24    1
    19     9    10   ar
    20    10    11   ar
    21    11    12   ar
    22    12    13   ar
    23    13    14    1
    24    14    16   am
    25    14    15    2
    26    16    25    1
    27    16    17    1
    28    17    27    1
    29    17    26    1
