@<TRIPOS>MOLECULE
/tmp/ewbell/vina_2p98_2p98_lig/vina/vina3.pdbqt
 21 23 0 0 0
SMALL
GASTEIGER

@<TRIPOS>ATOM
      1  C1        -0.6210   -0.5350    9.3050 C.ar  266  INH266      0.1330
      2  N1        -1.8300   -0.0510    9.5800 N.ar  266  INH266     -0.3160
      3  C2        -2.2730    0.9780   10.4200 C.ar  266  INH266      0.0990
      4  C3        -3.6310    1.2680   10.4960 C.ar  266  INH266      0.0300
      5  C4        -4.5460    0.5400    9.7410 C.ar  266  INH266     -0.0210
      6  C5        -5.9010    0.8390    9.8180 C.2   266  INH266      0.0120
      7  C6        -6.8210    0.1180    9.0650 C.2   266  INH266      0.0010
      8  C7        -6.3830   -0.9070    8.2310 C.2   266  INH266      0.0010
      9  C8        -5.0290   -1.2070    8.1520 C.3   266  INH266      0.0160
     10  C9        -4.1090   -0.4850    8.9060 C.ar  266  INH266      0.0190
     11  C10       -2.7540   -0.7810    8.8230 C.ar  266  INH266      0.1230
     12  N2        -2.0680   -1.6780    8.1210 N.ar  266  INH266     -0.3360
     13  H2        -2.4550   -2.3640    7.4730 H     266  INH266      0.1680
     14  C11       -0.7810   -1.5150    8.4210 C.ar  266  INH266      0.1190
     15  C12        0.3480   -2.3470    7.8150 C.2   266  INH266      0.2830
     16  N3         0.5410   -3.5460    8.3580 N.am  266  INH266     -0.2880
     17  H8         1.2570   -4.1370    7.9820 H     266  INH266      0.1830
     18  O1         0.9890   -1.9130    6.8610 O.2   266  INH266     -0.2650
     19  N4        -0.2000   -3.9970    9.4060 N.3   266  INH266     -0.2470
     20  H10       -0.1330   -5.0020    9.4570 H     266  INH266      0.1430
     21  H9         0.1480   -3.5950   10.2620 H     266  INH266      0.1430
@<TRIPOS>BOND
     1    18    15    2
     2    13    12    1
     3    15    16   am
     4    15    14    1
     5    17    16    1
     6    12    14   ar
     7    12    11   ar
     8     9     8    1
     9     9    10    1
    10     8     7    2
    11    16    19    1
    12    14     1   ar
    13    11    10   ar
    14    11     2   ar
    15    10     5   ar
    16     7     6    1
    17     1     2   ar
    18    19    20    1
    19    19    21    1
    20     2     3   ar
    21     5     6    2
    22     5     4   ar
    23     3     4   ar
