@<TRIPOS>MOLECULE
/tmp/ewbell/vina_2p98_2p98_lig/vina/vina4.pdbqt
 21 23 0 0 0
SMALL
GASTEIGER

@<TRIPOS>ATOM
      1  C1        -2.2010   -2.8000    7.0900 C.ar  266  INH266      0.1330
      2  N1        -3.3480   -2.2110    7.4170 N.ar  266  INH266     -0.3160
      3  C2        -4.6760   -2.4340    7.0310 C.3   266  INH266      0.0990
      4  C3        -5.6890   -1.6430    7.5600 C.2   266  INH266      0.0300
      5  C4        -5.3880   -0.6340    8.4690 C.2   266  INH266     -0.0210
      6  C5        -6.4070    0.1500    8.9980 C.3   266  INH266      0.0120
      7  C6        -6.1130    1.1580    9.9090 C.2   266  INH266      0.0010
      8  C7        -4.7950    1.3850   10.2930 C.2   266  INH266      0.0010
      9  C8        -3.7740    0.6020    9.7660 C.3   266  INH266      0.0160
     10  C9        -4.0690   -0.4080    8.8550 C.2   266  INH266      0.0190
     11  C10       -3.0500   -1.1940    8.3310 C.ar  266  INH266      0.1230
     12  N2        -1.7340   -1.2070    8.5210 N.ar  266  INH266     -0.3360
     13  H2        -1.2040   -0.5850    9.1310 H     266  INH266      0.1680
     14  C11       -1.2360   -2.1850    7.7670 C.ar  266  INH266      0.1190
     15  C12        0.2490   -2.5420    7.7050 C.2   266  INH266      0.2830
     16  N3         1.0950   -1.5170    7.7350 N.am  266  INH266     -0.2880
     17  H8         2.0780   -1.7010    7.7170 H     266  INH266      0.1830
     18  O1         0.5970   -3.7200    7.6670 O.2   266  INH266     -0.2650
     19  N4         0.6690   -0.2250    7.7910 N.3   266  INH266     -0.2470
     20  H10       -0.1180   -0.1580    8.4160 H     266  INH266      0.1430
     21  H9         1.4170    0.3610    8.1270 H     266  INH266      0.1430
@<TRIPOS>BOND
     1     3     2    1
     2     3     4    1
     3     1     2   ar
     4     1    14   ar
     5     2    11   ar
     6     4     5    2
     7    18    15    2
     8    15    16   am
     9    15    14    1
    10    17    16    1
    11    16    19    1
    12    14    12   ar
    13    19    21    1
    14    19    20    1
    15    11    12   ar
    16    11    10    2
    17     5    10    1
    18     5     6    1
    19    12    13    1
    20    10     9    1
    21     6     7    1
    22     9     8    1
    23     7     8    2
