@<TRIPOS>MOLECULE
/tmp/ewbell/vina_2p98_2p98_lig/vina/vina2.pdbqt
 21 23 0 0 0
SMALL
GASTEIGER

@<TRIPOS>ATOM
      1  C1        -1.1380   -1.8230    7.9790 C.ar  266  INH266      0.1330
      2  N1        -2.4590   -1.7060    7.8690 N.ar  266  INH266     -0.3160
      3  C2        -3.4060   -2.3430    7.0580 C.3   266  INH266      0.0990
      4  C3        -4.7500   -2.0100    7.1770 C.2   266  INH266      0.0300
      5  C4        -5.1550   -1.0480    8.0970 C.ar  266  INH266     -0.0210
      6  C5        -6.5010   -0.7240    8.2140 C.ar  266  INH266      0.0120
      7  C6        -6.9130    0.2340    9.1340 C.ar  266  INH266      0.0010
      8  C7        -5.9750    0.8700    9.9400 C.ar  266  INH266      0.0010
      9  C8        -4.6280    0.5480    9.8250 C.ar  266  INH266      0.0160
     10  C9        -4.2170   -0.4120    8.9050 C.ar  266  INH266      0.0190
     11  C10       -2.8710   -0.7380    8.7930 C.ar  266  INH266      0.1230
     12  N2        -1.7830   -0.3080    9.4250 N.ar  266  INH266     -0.3360
     13  H2        -1.7490    0.4010   10.1580 H     266  INH266      0.1680
     14  C11       -0.7450   -0.9750    8.9240 C.ar  266  INH266      0.1190
     15  C12        0.6980   -0.7820    9.3900 C.2   266  INH266      0.2830
     16  N3         1.1070   -1.5920   10.3620 N.am  266  INH266     -0.2880
     17  H8         2.0510   -1.5170   10.6880 H     266  INH266      0.1830
     18  O1         1.4130    0.0570    8.8470 O.2   266  INH266     -0.2650
     19  N4         0.2880   -2.5180   10.9300 N.3   266  INH266     -0.2470
     20  H10       -0.5540   -2.0680   11.2540 H     266  INH266      0.1430
     21  H9         0.0520   -3.2220   10.2480 H     266  INH266      0.1430
@<TRIPOS>BOND
     1     3     4    1
     2     3     2    1
     3     4     5    2
     4     2     1   ar
     5     2    11   ar
     6     1    14   ar
     7     5     6   ar
     8     5    10   ar
     9     6     7   ar
    10    11    10    2
    11    11    12   ar
    12    18    15    2
    13    10     9   ar
    14    14    15    1
    15    14    12   ar
    16     7     8   ar
    17    15    16   am
    18    12    13    1
    19     9     8   ar
    20    21    19    1
    21    16    17    1
    22    16    19    1
    23    19    20    1
