@<TRIPOS>MOLECULE
/tmp/ewbell/vina_2p98_2p98_lig/vina/vina5.pdbqt
 21 23 0 0 0
SMALL
GASTEIGER

@<TRIPOS>ATOM
      1  C1        -2.7100   -0.0980    8.9430 C.ar  266  INH266      0.1330
      2  N1        -2.8360   -1.1400    8.1260 N.ar  266  INH266     -0.3160
      3  C2        -3.9160   -1.6490    7.3940 C.ar  266  INH266      0.0990
      4  C3        -3.7390   -2.7770    6.6010 C.ar  266  INH266      0.0300
      5  C4        -2.4960   -3.3990    6.5340 C.ar  266  INH266     -0.0210
      6  C5        -2.3260   -4.5230    5.7350 C.2   266  INH266      0.0120
      7  C6        -1.0860   -5.1480    5.6600 C.3   266  INH266      0.0010
      8  C7        -0.0110   -4.6460    6.3880 C.2   266  INH266      0.0010
      9  C8        -0.1790   -3.5220    7.1880 C.2   266  INH266      0.0160
     10  C9        -1.4200   -2.8970    7.2610 C.ar  266  INH266      0.0190
     11  C10       -1.5880   -1.7700    8.0560 C.ar  266  INH266      0.1230
     12  N2        -0.7560   -1.0830    8.8340 N.ar  266  INH266     -0.3360
     13  H2         0.2300   -1.2900    8.9970 H     266  INH266      0.1680
     14  C11       -1.4480   -0.0750    9.3600 C.ar  266  INH266      0.1190
     15  C12       -0.8520    0.9640   10.3090 C.2   266  INH266      0.2830
     16  N3         0.3460    1.4360    9.9770 N.am  266  INH266     -0.2880
     17  H8         0.7680    2.1330   10.5570 H     266  INH266      0.1830
     18  O1        -1.4910    1.3400   11.2900 O.2   266  INH266     -0.2650
     19  N4         1.0160    1.0040    8.8740 N.3   266  INH266     -0.2470
     20  H10        1.7670    0.3930    9.1560 H     266  INH266      0.1430
     21  H9         0.3840    0.5040    8.2700 H     266  INH266      0.1430
@<TRIPOS>BOND
     1     7     6    1
     2     7     8    1
     3     6     5    2
     4     8     9    2
     5     5     4   ar
     6     5    10   ar
     7     4     3   ar
     8     9    10    1
     9    10    11   ar
    10     3     2   ar
    11    11     2   ar
    12    11    12   ar
    13     2     1   ar
    14    21    19    1
    15    12    13    1
    16    12    14   ar
    17    19    20    1
    18    19    16    1
    19     1    14   ar
    20    14    15    1
    21    16    15   am
    22    16    17    1
    23    15    18    2
