@<TRIPOS>MOLECULE
/tmp/ewbell/vina_2p98_2p98_lig/vina/vina1.pdbqt
 21 23 0 0 0
SMALL
GASTEIGER

@<TRIPOS>ATOM
      1  C1        -1.7450    0.6810   10.3100 C.ar  266  INH266      0.1330
      2  N1        -3.0450    0.5750   10.0510 N.ar  266  INH266     -0.3160
      3  C2        -4.1800    1.1620   10.6230 C.ar  266  INH266      0.0990
      4  C3        -5.4400    0.8580   10.1210 C.ar  266  INH266      0.0300
      5  C4        -5.5750   -0.0260    9.0550 C.ar  266  INH266     -0.0210
      6  C5        -6.8380   -0.3220    8.5560 C.2   266  INH266      0.0120
      7  C6        -6.9800   -1.2020    7.4890 C.2   266  INH266      0.0010
      8  C7        -5.8550   -1.7900    6.9190 C.2   266  INH266      0.0010
      9  C8        -4.5910   -1.4960    7.4170 C.3   266  INH266      0.0160
     10  C9        -4.4500   -0.6140    8.4840 C.ar  266  INH266      0.0190
     11  C10       -3.1860   -0.3150    8.9790 C.ar  266  INH266      0.1230
     12  N2        -1.9650   -0.7120    8.6330 N.ar  266  INH266     -0.3360
     13  H2        -1.7300   -1.3650    7.8850 H     266  INH266      0.1680
     14  C11       -1.1050   -0.1000    9.4450 C.ar  266  INH266      0.1190
     15  C12        0.4110   -0.2770    9.3710 C.2   266  INH266      0.2830
     16  N3         0.8970   -1.3690    9.9550 N.am  266  INH266     -0.2880
     17  H8         1.8830   -1.5390    9.9170 H     266  INH266      0.1830
     18  O1         1.0980    0.5430    8.7670 O.2   266  INH266     -0.2650
     19  N4         0.1010   -2.2620   10.6040 N.3   266  INH266     -0.2470
     20  H10       -0.5300   -2.6900    9.9440 H     266  INH266      0.1430
     21  H9         0.6720   -2.9720   11.0330 H     266  INH266      0.1430
@<TRIPOS>BOND
     1     8     9    1
     2     8     7    2
     3     9    10    1
     4     7     6    1
     5    13    12    1
     6    10    11   ar
     7    10     5   ar
     8     6     5    2
     9    12    11   ar
    10    12    14   ar
    11    18    15    2
    12    11     2   ar
    13     5     4   ar
    14    15    14    1
    15    15    16   am
    16    14     1   ar
    17    17    16    1
    18    20    19    1
    19    16    19    1
    20     2     1   ar
    21     2     3   ar
    22     4     3   ar
    23    19    21    1
