@<TRIPOS>MOLECULE
./ligand/3bgq_lig.pdb
 44 47 0 0 0
SMALL
GASTEIGER

@<TRIPOS>ATOM
      1  C1       -19.7840   38.8080    2.7170 C.ar  276  INH276     -0.0606
      2  C2       -18.8380   37.7400    2.4120 C.ar  276  INH276     -0.0510
      3  C3       -20.6710   39.3180    1.6790 C.ar  276  INH276     -0.0501
      4  C4       -19.6690   37.6890    0.0450 C.ar  276  INH276     -0.0394
      5  C5       -18.7630   37.1610    1.0590 C.ar  276  INH276      0.0215
      6  C6       -20.6350   38.7610    0.3000 C.ar  276  INH276      0.0555
      7  C7       -17.7620   36.1100    0.6880 C.ar  276  INH276      0.1853
      8  C8       -16.3130   34.7450   -0.4160 C.ar  276  INH276      0.1784
      9  C9       -15.6650   34.1930   -1.5590 C.ar  276  INH276     -0.0123
     10  C10      -16.0860   34.6410   -2.8710 C.ar  276  INH276     -0.0166
     11  C11      -17.1340   35.6220   -3.0730 C.ar  276  INH276      0.1400
     12  C12      -20.1000   38.8660   -6.1070 C.3   276  INH276     -0.0529
     13  C13      -19.4950   39.1950   -4.7490 C.3   276  INH276     -0.0514
     14  C14      -20.5320   37.4090   -6.2070 C.3   276  INH276     -0.0514
     15  C15      -18.3410   38.2660   -4.4010 C.3   276  INH276     -0.0345
     16  C16      -19.3900   36.4560   -5.8840 C.3   276  INH276     -0.0345
     17  C17      -18.7260   36.7960   -4.5320 C.3   276  INH276      0.0220
     18  C18      -21.5640   39.2750   -0.8230 C.3   276  INH276      0.4174
     19  N1       -17.0520   35.4020    1.6060 N.ar  276  INH276     -0.1270
     20  N2       -16.2310   34.6350    0.9100 N.ar  276  INH276     -0.1276
     21  N3       -17.7050   36.1100   -1.9040 N.ar  276  INH276     -0.1482
     22  N4       -17.3310   35.7150   -0.5950 N.ar  276  INH276     -0.1909
     23  N5       -17.5350   36.0030   -4.3410 N.pl3 276  INH276     -0.3248
     24  F1       -22.8460   39.1240   -0.4020 F     276  INH276     -0.1659
     25  F2       -21.4520   38.5530   -1.9700 F     276  INH276     -0.1659
     26  F3       -21.2250   40.5650   -1.0910 F     276  INH276     -0.1659
     27  H1       -19.8270   39.2220    3.7140 H     276  INH276      0.0618
     28  H2       -18.1840   37.3690    3.1880 H     276  INH276      0.0625
     29  H3       -21.3650   40.1120    1.9140 H     276  INH276      0.0623
     30  H4       -19.6250   37.2670   -0.9480 H     276  INH276      0.0630
     31  H5       -14.8800   33.4590   -1.4500 H     276  INH276      0.0656
     32  H6       -15.5960   34.2250   -3.7390 H     276  INH276      0.0653
     33  H7       -19.3460   39.0620   -6.8830 H     276  INH276      0.0265
     34  H8       -20.9930   39.4940   -6.2420 H     276  INH276      0.0265
     35  H9       -19.1200   40.2290   -4.7720 H     276  INH276      0.0266
     36  H10      -20.2780   39.0690   -3.9860 H     276  INH276      0.0266
     37  H11      -21.3500   37.2340   -5.4920 H     276  INH276      0.0266
     38  H12      -20.8560   37.2180   -7.2410 H     276  INH276      0.0266
     39  H13      -17.5060   38.4720   -5.0870 H     276  INH276      0.0283
     40  H14      -18.0600   38.4510   -3.3540 H     276  INH276      0.0283
     41  H15      -19.7880   35.4320   -5.8340 H     276  INH276      0.0283
     42  H16      -18.6300   36.5500   -6.6740 H     276  INH276      0.0283
     43  H17      -19.4810   36.5690   -3.7650 H     276  INH276      0.0498
     44  H18      -16.9930   35.7260   -5.1350 H     276  INH276      0.1478
@<TRIPOS>BOND
     1     1     2   ar
     2     1    27    1
     3     1     3   ar
     4     2     5   ar
     5     2    28    1
     6     3    29    1
     7     3     6   ar
     8     4     5   ar
     9     4     6   ar
    10     4    30    1
    11     5     7    1
    12     6    18    1
    13     7    19   ar
    14     7    22   ar
    15     8     9   ar
    16     8    22   ar
    17     8    20   ar
    18     9    10   ar
    19     9    31    1
    20    10    11   ar
    21    10    32    1
    22    11    23    1
    23    11    21   ar
    24    12    34    1
    25    12    33    1
    26    12    14    1
    27    12    13    1
    28    13    36    1
    29    13    35    1
    30    13    15    1
    31    14    16    1
    32    14    38    1
    33    14    37    1
    34    15    40    1
    35    15    39    1
    36    15    17    1
    37    16    17    1
    38    16    42    1
    39    16    41    1
    40    17    43    1
    41    17    23    1
    42    18    26    1
    43    18    25    1
    44    18    24    1
    45    19    20   ar
    46    21    22   ar
    47    23    44    1
