@<TRIPOS>MOLECULE
/tmp/ewbell/vina_3bgq_3bgq_lig/vina/vina2.pdbqt
 30 33 0 0 0
SMALL
GASTEIGER

@<TRIPOS>ATOM
      1  C7       -19.7220   38.5520    1.2500 C.3   276  INH276      0.1540
      2  C8       -21.3720   39.8270    0.3390 C.ar  276  INH276      0.1430
      3  C9       -22.2090   40.3130   -0.7070 C.ar  276  INH276      0.0560
      4  C10      -21.9800   39.8270   -2.0530 C.ar  276  INH276      0.0530
      5  C11      -20.9410   38.8710   -2.3820 C.ar  276  INH276      0.1160
      6  N1       -20.3060   39.2730    2.2420 N.3   276  INH276     -0.2820
      7  H1       -20.0650   39.2660    3.2330 H     276  INH276      0.1880
      8  N2       -21.2530   39.9870    1.6570 N.pl3 276  INH276     -0.2820
      9  H2       -21.8550   40.6220    2.1820 H     276  INH276      0.1880
     10  N3       -20.1780   38.4470   -1.3000 N.ar  276  INH276     -0.2760
     11  H3       -19.4340   37.7740   -1.4810 H     276  INH276      0.1890
     12  N4       -20.3600   38.8820    0.0370 N.ar  276  INH276     -0.2190
     13  C5       -18.6380   37.5470    1.4960 C.ar  276  INH276      0.0120
     14  C2       -18.0310   37.3470    2.8240 C.ar  276  INH276      0.0150
     15  C1       -17.0230   36.3150    3.0380 C.ar  276  INH276      0.0020
     16  C3       -16.6030   35.4620    1.9330 C.ar  276  INH276      0.0160
     17  C6       -17.1840   35.6300    0.5730 C.ar  276  INH276      0.0480
     18  C4       -18.1910   36.6820    0.4100 C.ar  276  INH276      0.0310
     19  C18      -16.7590   34.7470   -0.6210 C.3   276  INH276      0.4170
     20  F3       -16.8180   33.4470   -0.2250 F     276  INH276     -0.1660
     21  F2       -17.5630   34.9050   -1.7050 F     276  INH276     -0.1660
     22  F1       -15.5180   35.1430   -1.0080 F     276  INH276     -0.1660
     23  N5       -20.7270   38.4530   -3.6830 N.pl3 276  INH276     -0.3710
     24  H18      -21.2610   38.8570   -4.4260 H     276  INH276      0.1610
     25  C17      -19.7440   37.4390   -3.9810 C.3   276  INH276      0.0830
     26  C15      -20.4340   36.0800   -3.9220 C.3   276  INH276      0.0250
     27  C13      -19.5210   34.9530   -4.3840 C.3   276  INH276      0.0020
     28  C12      -18.9070   35.2400   -5.7470 C.3   276  INH276      0.0000
     29  C14      -18.1740   36.5730   -5.7780 C.3   276  INH276      0.0020
     30  C16      -19.0700   37.7240   -5.3410 C.3   276  INH276      0.0250
@<TRIPOS>BOND
     1    29    28    1
     2    29    30    1
     3    28    27    1
     4    30    25    1
     5    24    23    1
     6    27    26    1
     7    25    26    1
     8    25    23    1
     9    23     5    1
    10     5     4   ar
    11     5    10   ar
    12     4     3   ar
    13    21    19    1
    14    11    10    1
    15    10    12   ar
    16    22    19    1
    17     3     2   ar
    18    19    20    1
    19    19    17    1
    20    12     2   ar
    21    12     1    1
    22     2     8    1
    23    18    17   ar
    24    18    13   ar
    25    17    16   ar
    26     1    13    1
    27     1     6    1
    28    13    14   ar
    29     8     9    1
    30     8     6    1
    31    16    15   ar
    32     6     7    1
    33    14    15   ar
