@<TRIPOS>MOLECULE
/tmp/ewbell/vina_3bgq_3bgq_lig/vina/vina1.pdbqt
 30 33 0 0 0
SMALL
GASTEIGER

@<TRIPOS>ATOM
      1  C7       -18.3350   38.6200   -4.3980 C.3   276  INH276      0.1540
      2  C8       -20.0130   39.8070   -3.4200 C.ar  276  INH276      0.1430
      3  C9       -20.8720   40.2040   -2.3540 C.ar  276  INH276      0.0560
      4  C10      -20.7490   39.5210   -1.0820 C.ar  276  INH276      0.0530
      5  C11      -19.7950   38.4550   -0.8460 C.ar  276  INH276      0.1160
      6  N1       -18.8260   39.5040   -5.3080 N.3   276  INH276     -0.2820
      7  H1       -18.5150   39.6320   -6.2700 H     276  INH276      0.1880
      8  N2       -19.7880   40.1620   -4.6850 N.pl3 276  INH276     -0.2820
      9  H2       -20.3260   40.8970   -5.1440 H     276  INH276      0.1880
     10  N3       -18.9960   38.1390   -1.9380 N.ar  276  INH276     -0.2760
     11  H3       -18.3080   37.3950   -1.8210 H     276  INH276      0.1890
     12  N4       -19.0660   38.7760   -3.2020 N.ar  276  INH276     -0.2190
     13  C5       -17.1710   37.7190   -4.6760 C.ar  276  INH276      0.0120
     14  C2       -16.4500   37.7320   -5.9610 C.ar  276  INH276      0.0150
     15  C1       -15.2800   36.8850   -6.1700 C.ar  276  INH276      0.0020
     16  C3       -14.8090   36.0120   -5.1030 C.ar  276  INH276      0.0160
     17  C6       -15.5080   35.9610   -3.7900 C.ar  276  INH276      0.0480
     18  C4       -16.6780   36.8300   -3.6310 C.ar  276  INH276      0.0310
     19  C18      -15.0370   35.0450   -2.6390 C.3   276  INH276      0.4170
     20  F3       -13.9060   34.4080   -3.0440 F     276  INH276     -0.1660
     21  F2       -14.7610   35.7310   -1.4990 F     276  INH276     -0.1660
     22  F1       -16.0590   34.2020   -2.3360 F     276  INH276     -0.1660
     23  N5       -19.7260   37.8000    0.3710 N.pl3 276  INH276     -0.3710
     24  H18      -20.5700   37.5130    0.8260 H     276  INH276      0.1610
     25  C17      -18.4530   37.5290    0.9930 C.3   276  INH276      0.0830
     26  C15      -18.6260   37.6620    2.5030 C.3   276  INH276      0.0250
     27  C13      -17.3790   37.2330    3.2630 C.3   276  INH276      0.0020
     28  C12      -16.9080   35.8460    2.8470 C.3   276  INH276      0.0000
     29  C14      -16.6850   35.7420    1.3450 C.3   276  INH276      0.0020
     30  C16      -17.9240   36.1450    0.5580 C.3   276  INH276      0.0250
@<TRIPOS>BOND
     1     7     6    1
     2    15    14   ar
     3    15    16   ar
     4    14    13   ar
     5     6     8    1
     6     6     1    1
     7     9     8    1
     8    16    17   ar
     9     8     2    1
    10    13     1    1
    11    13    18   ar
    12     1    12    1
    13    17    18   ar
    14    17    19    1
    15     2    12   ar
    16     2     3   ar
    17    12    10   ar
    18    20    19    1
    19    19    22    1
    20    19    21    1
    21     3     4   ar
    22    10    11    1
    23    10     5   ar
    24     4     5   ar
    25     5    23    1
    26    23    24    1
    27    23    25    1
    28    30    25    1
    29    30    29    1
    30    25    26    1
    31    29    28    1
    32    26    27    1
    33    28    27    1
