@<TRIPOS>MOLECULE
/tmp/ewbell/vina_3bgq_3bgq_lig/vina/vina3.pdbqt
 30 33 0 0 0
SMALL
GASTEIGER

@<TRIPOS>ATOM
      1  C7       -17.4780   37.9700   -3.5460 C.3   276  INH276      0.1540
      2  C8       -15.8410   36.3880   -3.5120 C.ar  276  INH276      0.1430
      3  C9       -15.1790   35.2150   -3.0460 C.ar  276  INH276      0.0560
      4  C10      -15.7380   34.5180   -1.9050 C.ar  276  INH276      0.0530
      5  C11      -16.9360   34.9590   -1.2180 C.ar  276  INH276      0.1160
      6  N1       -16.6080   38.2270   -4.5590 N.3   276  INH276     -0.2820
      7  H1       -16.6550   38.9920   -5.2310 H     276  INH276      0.1880
      8  N2       -15.6880   37.2800   -4.4910 N.pl3 276  INH276     -0.2820
      9  H2       -14.9080   37.2350   -5.1470 H     276  INH276      0.1880
     10  N3       -17.5170   36.1060   -1.7440 N.ar  276  INH276     -0.2760
     11  H3       -18.3630   36.4560   -1.2950 H     276  INH276      0.1890
     12  N4       -17.0210   36.8260   -2.8600 N.ar  276  INH276     -0.2190
     13  C5       -18.7220   38.7700   -3.3110 C.ar  276  INH276      0.0120
     14  C2       -19.2430   39.7310   -4.2990 C.ar  276  INH276      0.0150
     15  C1       -20.4930   40.4450   -4.0600 C.ar  276  INH276      0.0020
     16  C3       -21.2450   40.2130   -2.8340 C.ar  276  INH276      0.0160
     17  C6       -20.7560   39.2560   -1.8050 C.ar  276  INH276      0.0480
     18  C4       -19.4950   38.5660   -2.0910 C.ar  276  INH276      0.0310
     19  C18      -21.5260   38.9890   -0.4920 C.3   276  INH276      0.4170
     20  F3       -20.7870   39.4850    0.5370 F     276  INH276     -0.1660
     21  F2       -22.7490   39.5820   -0.4690 F     276  INH276     -0.1660
     22  F1       -21.7500   37.6520   -0.4080 F     276  INH276     -0.1660
     23  N5       -17.4240   34.2890   -0.1110 N.pl3 276  INH276     -0.3710
     24  H18      -17.4800   33.2900   -0.1230 H     276  INH276      0.1610
     25  C17      -17.8540   35.0140    1.0610 C.3   276  INH276      0.0830
     26  C15      -16.6620   35.8040    1.5920 C.3   276  INH276      0.0250
     27  C13      -17.0520   36.7340    2.7320 C.3   276  INH276      0.0020
     28  C12      -18.2300   37.6260    2.3610 C.3   276  INH276      0.0000
     29  C14      -19.4320   36.8220    1.8860 C.3   276  INH276      0.0020
     30  C16      -19.0760   35.8980    0.7310 C.3   276  INH276      0.0250
@<TRIPOS>BOND
     1     7     6    1
     2     9     8    1
     3     6     8    1
     4     6     1    1
     5     8     2    1
     6    14    15   ar
     7    14    13   ar
     8    15    16   ar
     9     1    13    1
    10     1    12    1
    11     2     3   ar
    12     2    12   ar
    13    13    18   ar
    14     3     4   ar
    15    12    10   ar
    16    16    17   ar
    17    18    17   ar
    18     4     5   ar
    19    17    19    1
    20    10    11    1
    21    10     5   ar
    22     5    23    1
    23    19    21    1
    24    19    22    1
    25    19    20    1
    26    24    23    1
    27    23    25    1
    28    30    25    1
    29    30    29    1
    30    25    26    1
    31    26    27    1
    32    29    28    1
    33    28    27    1
