@<TRIPOS>MOLECULE
/tmp/ewbell/vina_3bgq_3bgq_lig/vina/vina4.pdbqt
 30 33 0 0 0
SMALL
GASTEIGER

@<TRIPOS>ATOM
      1  C7       -19.7920   38.3890    0.9480 C.3   276  INH276      0.1540
      2  C8       -18.3700   37.1760    2.2470 C.ar  276  INH276      0.1430
      3  C9       -17.3410   36.2250    2.5060 C.ar  276  INH276      0.0560
      4  C10      -16.7880   35.4880    1.3870 C.ar  276  INH276      0.0530
      5  C11      -17.2340   35.6740    0.0200 C.ar  276  INH276      0.1160
      6  N1       -19.9570   38.7720    2.2420 N.3   276  INH276     -0.2820
      7  H1       -20.6010   39.4780    2.5980 H     276  INH276      0.1880
      8  N2       -19.1080   38.0400    2.9430 N.pl3 276  INH276     -0.2820
      9  H2       -19.0230   38.1310    3.9560 H     276  INH276      0.1880
     10  N3       -18.2360   36.6240   -0.1390 N.ar  276  INH276     -0.2760
     11  H3       -18.5840   36.7910   -1.0830 H     276  INH276      0.1890
     12  N4       -18.8090   37.3790    0.9150 N.ar  276  INH276     -0.2190
     13  C5       -20.5190   39.0290   -0.1940 C.ar  276  INH276      0.0120
     14  C2       -21.8530   39.6370   -0.0430 C.ar  276  INH276      0.0150
     15  C1       -22.5010   40.3080   -1.1650 C.ar  276  INH276      0.0020
     16  C3       -21.8300   40.3860   -2.4570 C.ar  276  INH276      0.0160
     17  C6       -20.4860   39.7830   -2.6590 C.ar  276  INH276      0.0480
     18  C4       -19.8780   39.1190   -1.5010 C.ar  276  INH276      0.0310
     19  C18      -19.7480   39.8440   -4.0150 C.3   276  INH276      0.4170
     20  F3       -20.5210   39.2160   -4.9430 F     276  INH276     -0.1660
     21  F2       -19.5200   41.1170   -4.4340 F     276  INH276     -0.1660
     22  F1       -18.5260   39.2750   -3.8480 F     276  INH276     -0.1660
     23  N5       -16.7090   34.9300   -1.0210 N.pl3 276  INH276     -0.3710
     24  H18      -16.6010   33.9400   -0.9160 H     276  INH276      0.1610
     25  C17      -16.3130   35.5630   -2.2550 C.3   276  INH276      0.0830
     26  C15      -14.9600   34.9920   -2.6670 C.3   276  INH276      0.0250
     27  C13      -14.5290   35.4740   -4.0450 C.3   276  INH276      0.0020
     28  C12      -15.6080   35.2390   -5.0930 C.3   276  INH276      0.0000
     29  C14      -16.9390   35.8620   -4.6970 C.3   276  INH276      0.0020
     30  C16      -17.4060   35.3810   -3.3300 C.3   276  INH276      0.0250
@<TRIPOS>BOND
     1    28    29    1
     2    28    27    1
     3    20    19    1
     4    29    30    1
     5    21    19    1
     6    27    26    1
     7    19    22    1
     8    19    17    1
     9    30    25    1
    10    26    25    1
    11    17    16   ar
    12    17    18   ar
    13    16    15   ar
    14    25    23    1
    15    18    13   ar
    16    15    14   ar
    17    11    10    1
    18    23    24    1
    19    23     5    1
    20    13    14   ar
    21    13     1    1
    22    10     5   ar
    23    10    12   ar
    24     5     4   ar
    25    12     1    1
    26    12     2   ar
    27     1     6    1
    28     4     3   ar
    29     6     7    1
    30     6     8    1
    31     2     3   ar
    32     2     8    1
    33     8     9    1
