@<TRIPOS>MOLECULE
/tmp/ewbell/vina_3bgq_3bgq_lig/vina/vina5.pdbqt
 30 33 0 0 0
SMALL
GASTEIGER

@<TRIPOS>ATOM
      1  C7       -21.3900   39.7710   -0.2670 C.3   276  INH276      0.1540
      2  C8       -20.2500   38.9090    1.5040 C.ar  276  INH276      0.1430
      3  C9       -19.3500   38.0190    2.1590 C.ar  276  INH276      0.0560
      4  C10      -18.7380   36.9620    1.3780 C.ar  276  INH276      0.0530
      5  C11      -19.0000   36.7700   -0.0350 C.ar  276  INH276      0.1160
      6  N1       -21.6720   40.5190    0.8330 N.3   276  INH276     -0.2820
      7  H1       -22.2870   41.3310    0.8840 H     276  INH276      0.1880
      8  N2       -20.9830   39.9760    1.8210 N.pl3 276  INH276     -0.2820
      9  H2       -21.0100   40.3500    2.7700 H     276  INH276      0.1880
     10  N3       -19.8840   37.6860   -0.5910 N.ar  276  INH276     -0.2760
     11  H3       -20.1010   37.5920   -1.5830 H     276  INH276      0.1890
     12  N4       -20.5070   38.7430    0.1200 N.ar  276  INH276     -0.2190
     13  C5       -21.9150   40.0930   -1.6330 C.ar  276  INH276      0.0120
     14  C2       -21.0840   39.9850   -2.8450 C.ar  276  INH276      0.0150
     15  C1       -21.6490   40.2450   -4.1650 C.ar  276  INH276      0.0020
     16  C3       -23.0520   40.6170   -4.2990 C.ar  276  INH276      0.0160
     17  C6       -23.9280   40.7440   -3.1040 C.ar  276  INH276      0.0480
     18  C4       -23.3130   40.4730   -1.8010 C.ar  276  INH276      0.0310
     19  C18      -25.4180   41.1390   -3.2100 C.3   276  INH276      0.4170
     20  F3       -25.7230   41.2820   -4.5280 F     276  INH276     -0.1660
     21  F2       -26.2500   40.2080   -2.6730 F     276  INH276     -0.1660
     22  F1       -25.5990   42.2730   -2.4830 F     276  INH276     -0.1660
     23  N5       -18.4250   35.7300   -0.7430 N.pl3 276  INH276     -0.3710
     24  H18      -18.8870   34.8430   -0.7810 H     276  INH276      0.1610
     25  C17      -17.1660   35.9080   -1.4260 C.3   276  INH276      0.0830
     26  C15      -16.3340   34.6470   -1.2200 C.3   276  INH276      0.0250
     27  C13      -15.0510   34.6660   -2.0390 C.3   276  INH276      0.0020
     28  C12      -15.3200   34.9580   -3.5090 C.3   276  INH276      0.0000
     29  C14      -16.1030   36.2480   -3.7060 C.3   276  INH276      0.0020
     30  C16      -17.4030   36.2480   -2.9140 C.3   276  INH276      0.0250
@<TRIPOS>BOND
     1    20    19    1
     2    16    15   ar
     3    16    17   ar
     4    15    14   ar
     5    29    28    1
     6    29    30    1
     7    28    27    1
     8    19    17    1
     9    19    21    1
    10    19    22    1
    11    17    18   ar
    12    30    25    1
    13    14    13   ar
    14    27    26    1
    15    18    13   ar
    16    13     1    1
    17    11    10    1
    18    25    26    1
    19    25    23    1
    20    24    23    1
    21    23     5    1
    22    10     5   ar
    23    10    12   ar
    24     1    12    1
    25     1     6    1
    26     5     4   ar
    27    12     2   ar
    28     6     7    1
    29     6     8    1
    30     4     3   ar
    31     2     8    1
    32     2     3   ar
    33     8     9    1
