@<TRIPOS>MOLECULE
./ligand/1ukb_lig.pdb
 14 14 0 0 0
SMALL
GASTEIGER

@<TRIPOS>ATOM
      1  C1         8.4230   39.4330   -6.6400 C.2   547  INH547      0.3865
      2  O1         8.5290   40.2800   -7.6130 O.co2 547  INH547     -0.2406
      3  O2         9.2750   38.4640   -6.5440 O.co2 547  INH547     -0.2406
      4  C2         7.3380   39.5850   -5.6210 C.ar  547  INH547      0.0631
      5  C3         6.8580   38.4460   -4.9060 C.ar  547  INH547     -0.0476
      6  C4         5.8240   38.5920   -3.9340 C.ar  547  INH547     -0.0610
      7  C5         5.2640   39.8730   -3.6700 C.ar  547  INH547     -0.0617
      8  C6         5.7400   41.0120   -4.3770 C.ar  547  INH547     -0.0610
      9  C7         6.7760   40.8700   -5.3520 C.ar  547  INH547     -0.0476
     10  H1         7.2810   37.4670   -5.1020 H     547  INH547      0.0626
     11  H2         5.4640   37.7240   -3.3950 H     547  INH547      0.0618
     12  H3         4.4770   39.9810   -2.9320 H     547  INH547      0.0618
     13  H4         5.3160   41.9890   -4.1760 H     547  INH547      0.0618
     14  H5         7.1360   41.7400   -5.8890 H     547  INH547      0.0626
@<TRIPOS>BOND
     1     1     4    1
     2     1     3   ar
     3     1     2   ar
     4     4     9   ar
     5     4     5   ar
     6     5    10    1
     7     5     6   ar
     8     6    11    1
     9     6     7   ar
    10     7    12    1
    11     7     8   ar
    12     8    13    1
    13     8     9   ar
    14     9    14    1
