@<TRIPOS>MOLECULE
/tmp/ewbell/vina_1ukb_1ukb_lig/vina/vina5.pdbqt
 10 10 0 0 0
SMALL
GASTEIGER

@<TRIPOS>ATOM
      1  C2        15.7270   38.6540  -14.3640 C.ar  547  INH547      0.0370
      2  C3        16.7270   39.2000  -15.2240 C.ar  547  INH547      0.0180
      3  C4        16.5250   40.4680  -15.8460 C.ar  547  INH547      0.0010
      4  C5        15.3240   41.1960  -15.6150 C.ar  547  INH547      0.0000
      5  C6        14.3230   40.6550  -14.7620 C.ar  547  INH547      0.0010
      6  C7        14.5220   39.3850  -14.1360 C.ar  547  INH547      0.0180
      7  C1        15.9380   37.3240  -13.7120 C.2   547  INH547      0.1760
      8  O2        15.7310   36.2330  -14.3750 O.2   547  INH547     -0.6460
      9  O1        16.3110   37.2550  -12.4740 O.3   547  INH547     -0.7730
     10  H         15.9100   36.6340  -11.8980 H     547  INH547      0.1670
@<TRIPOS>BOND
     1     3     4   ar
     2     3     2   ar
     3     4     5   ar
     4     2     1   ar
     5     5     6   ar
     6     8     7    2
     7     1     6   ar
     8     1     7    1
     9     7     9    1
    10     9    10    1
