@<TRIPOS>MOLECULE
/tmp/ewbell/vina_1ukb_1ukb_lig/vina/vina2.pdbqt
 10 10 0 0 0
SMALL
GASTEIGER

@<TRIPOS>ATOM
      1  C2        12.8770   38.3980  -13.5800 C.ar  547  INH547      0.0370
      2  C3        11.6220   37.8110  -13.9270 C.ar  547  INH547      0.0180
      3  C4        10.8760   38.3140  -15.0340 C.ar  547  INH547      0.0010
      4  C5        11.3770   39.4030  -15.8000 C.ar  547  INH547      0.0000
      5  C6        12.6250   39.9940  -15.4580 C.ar  547  INH547      0.0010
      6  C7        13.3750   39.4930  -14.3490 C.ar  547  INH547      0.0180
      7  C1        13.6590   37.8720  -12.4180 C.2   547  INH547      0.1760
      8  O2        13.1250   37.8250  -11.2410 O.2   547  INH547     -0.6460
      9  O1        14.8810   37.4790  -12.5780 O.3   547  INH547     -0.7730
     10  H         15.4100   37.2720  -11.8320 H     547  INH547      0.1670
@<TRIPOS>BOND
     1     4     5   ar
     2     4     3   ar
     3     5     6   ar
     4     3     2   ar
     5     6     1   ar
     6     2     1   ar
     7     1     7    1
     8     9     7    1
     9     9    10    1
    10     7     8    2
