@<TRIPOS>MOLECULE
/tmp/ewbell/vina_1ukb_1ukb_lig/vina/vina3.pdbqt
 10 10 0 0 0
SMALL
GASTEIGER

@<TRIPOS>ATOM
      1  C2         3.5460   29.2440   -1.3990 C.ar  547  INH547      0.0370
      2  C3         3.8740   30.3930   -2.1810 C.ar  547  INH547      0.0180
      3  C4         4.0400   31.6640   -1.5540 C.ar  547  INH547      0.0010
      4  C5         3.8810   31.7950   -0.1470 C.ar  547  INH547      0.0000
      5  C6         3.5520   30.6550    0.6370 C.ar  547  INH547      0.0010
      6  C7         3.3850   29.3790    0.0130 C.ar  547  INH547      0.0180
      7  C1         3.3710   27.9110   -2.0560 C.2   547  INH547      0.1760
      8  O2         2.3790   27.1490   -1.7270 O.2   547  INH547     -0.6460
      9  O1         4.2200   27.5030   -2.9430 O.3   547  INH547     -0.7730
     10  H          3.9170   27.1650   -3.7630 H     547  INH547      0.1670
@<TRIPOS>BOND
     1    10     9    1
     2     9     7    1
     3     2     3   ar
     4     2     1   ar
     5     7     8    2
     6     7     1    1
     7     3     4   ar
     8     1     6   ar
     9     4     5   ar
    10     6     5   ar
