@<TRIPOS>MOLECULE
/tmp/ewbell/vina_1ukb_1ukb_lig/vina/vina1.pdbqt
 10 10 0 0 0
SMALL
GASTEIGER

@<TRIPOS>ATOM
      1  C2         7.1520   39.5590   -5.7310 C.ar  547  INH547      0.0370
      2  C3         6.9410   38.4850   -4.8140 C.ar  547  INH547      0.0180
      3  C4         5.9180   38.5770   -3.8240 C.ar  547  INH547      0.0010
      4  C5         5.1030   39.7400   -3.7410 C.ar  547  INH547      0.0000
      5  C6         5.3100   40.8150   -4.6490 C.ar  547  INH547      0.0010
      6  C7         6.3340   40.7260   -5.6440 C.ar  547  INH547      0.0180
      7  C1         8.2240   39.4640   -6.7700 C.2   547  INH547      0.1760
      8  O2         9.2330   38.6730   -6.5940 O.2   547  INH547     -0.6460
      9  O1         8.1620   40.1860   -7.8420 O.3   547  INH547     -0.7730
     10  H          7.6770   40.9880   -7.8390 H     547  INH547      0.1670
@<TRIPOS>BOND
     1     9    10    1
     2     9     7    1
     3     7     8    2
     4     7     1    1
     5     1     6   ar
     6     1     2   ar
     7     6     5   ar
     8     2     3   ar
     9     5     4   ar
    10     3     4   ar
