@<TRIPOS>MOLECULE
/tmp/ewbell/vina_1ukb_1ukb_lig/vina/vina4.pdbqt
 10 10 0 0 0
SMALL
GASTEIGER

@<TRIPOS>ATOM
      1  C2        13.7050   37.7020  -15.2040 C.ar  547  INH547      0.0370
      2  C3        13.7250   39.1260  -15.0930 C.ar  547  INH547      0.0180
      3  C4        12.5150   39.8720  -15.2090 C.ar  547  INH547      0.0010
      4  C5        11.2800   39.2030  -15.4370 C.ar  547  INH547      0.0000
      5  C6        11.2540   37.7860  -15.5520 C.ar  547  INH547      0.0010
      6  C7        12.4650   37.0340  -15.4350 C.ar  547  INH547      0.0180
      7  C1        14.9740   36.9190  -15.0830 C.2   547  INH547      0.1760
      8  O2        16.0860   37.5190  -14.8050 O.2   547  INH547     -0.6460
      9  O1        14.9730   35.6390  -15.2750 O.3   547  INH547     -0.7730
     10  H         14.2300   35.2240  -15.6690 H     547  INH547      0.1670
@<TRIPOS>BOND
     1    10     9    1
     2     5     4   ar
     3     5     6   ar
     4     4     3   ar
     5     6     1   ar
     6     9     7    1
     7     3     2   ar
     8     1     2   ar
     9     1     7    1
    10     7     8    2
