@<TRIPOS>MOLECULE
./ligand/3eko_lig.pdb
 25 26 0 0 0
SMALL
GASTEIGER

@<TRIPOS>ATOM
      1  N1        17.3300   -3.7920   51.3110 N.ar  220  INH220     -0.2902
      2  C1        15.0750   -1.4890   50.6690 C.ar  220  INH220      0.1362
      3  C2        16.5860    0.6050   49.4790 C.ar  220  INH220      0.0223
      4  C3        14.5470   -0.1700   50.6470 C.ar  220  INH220      0.0223
      5  C4        17.8580   -5.0670   51.3870 C.ar  220  INH220      0.0127
      6  C5        17.2880   -3.2890   52.6110 C.ar  220  INH220      0.0127
      7  C6        18.1380   -5.3550   52.7030 C.ar  220  INH220     -0.0437
      8  C7        17.7790   -4.2340   53.4710 C.ar  220  INH220     -0.0437
      9  C8        16.3580   -1.7640   50.0990 C.ar  220  INH220      0.1226
     10  C9        15.3090    0.8690   50.0510 C.ar  220  INH220      0.1238
     11  C10       17.1030   -0.7160   49.5080 C.ar  220  INH220      0.1362
     12  C11       16.9180   -3.1330   50.1250 C.2   220  INH220      0.2695
     13  O1        17.0400   -3.7310   49.0500 O.2   220  INH220     -0.2664
     14  O2        14.7860    2.1290   50.0470 O.3   220  INH220     -0.5065
     15  O3        18.3320   -0.9270   48.9500 O.3   220  INH220     -0.5058
     16  O4        14.3520   -2.5010   51.2450 O.3   220  INH220     -0.5058
     17  H1        17.1580    1.4060   49.0250 H     220  INH220      0.0691
     18  H2        13.5750    0.0400   51.0790 H     220  INH220      0.0691
     19  H3        18.0250   -5.7350   50.5430 H     220  INH220      0.0814
     20  H4        16.9230   -2.3030   52.8960 H     220  INH220      0.0814
     21  H5        18.5620   -6.2840   53.0810 H     220  INH220      0.0633
     22  H6        17.8740   -4.1350   54.5510 H     220  INH220      0.0633
     23  H7        15.3940    2.7220   49.6210 H     220  INH220      0.2921
     24  H8        18.6700   -0.1070   48.6080 H     220  INH220      0.2922
     25  H9        14.8380   -3.3150   51.1790 H     220  INH220      0.2922
@<TRIPOS>BOND
     1     1    12   am
     2     1     6   ar
     3     1     5   ar
     4     2    16    1
     5     2     9   ar
     6     2     4   ar
     7     3    10   ar
     8     3    17    1
     9     3    11   ar
    10     4    18    1
    11     4    10   ar
    12     5    19    1
    13     5     7   ar
    14     6     8   ar
    15     6    20    1
    16     7    21    1
    17     7     8   ar
    18     8    22    1
    19     9    11   ar
    20     9    12    1
    21    10    14    1
    22    11    15    1
    23    12    13    2
    24    14    23    1
    25    15    24    1
    26    16    25    1
