@<TRIPOS>MOLECULE
/tmp/ewbell/vina_3eko_3eko_lig/vina/vina1.pdbqt
 19 20 0 0 0
SMALL
GASTEIGER

@<TRIPOS>ATOM
      1  C1        17.3000   -3.8360   50.2720 C.ar  220  INH220      0.0860
      2  C2        17.4070   -3.5740   53.1010 C.ar  220  INH220      0.0740
      3  C3        17.5520   -4.9830   51.0720 C.ar  220  INH220      0.0740
      4  C8        17.1040   -2.5570   50.8830 C.ar  220  INH220      0.0990
      5  C9        17.6040   -4.8420   52.4840 C.ar  220  INH220      0.0710
      6  C10       17.1580   -2.4360   52.2910 C.ar  220  INH220      0.0860
      7  C11       16.8500   -1.3560   50.0560 C.2   220  INH220      0.2670
      8  N1        15.6020   -0.6860   50.0050 N.ar  220  INH220     -0.2990
      9  C5        15.3840    0.6730   49.7810 C.ar  220  INH220      0.0990
     10  C4        14.3610   -1.2710   50.1760 C.ar  220  INH220      0.0990
     11  C7        14.0390    0.9210   49.8130 C.ar  220  INH220      0.0190
     12  C6        13.3920   -0.3020   50.0600 C.ar  220  INH220      0.0190
     13  O1        17.7780   -0.9200   49.3660 O.2   220  INH220     -0.2670
     14  O4        17.2520   -3.9560   48.9070 O.3   220  INH220     -0.3590
     15  H9        18.1310   -4.0840   48.5690 H     220  INH220      0.2170
     16  O3        16.9770   -1.2380   52.9220 O.3   220  INH220     -0.3590
     17  H8        17.8220   -0.8710   53.1560 H     220  INH220      0.2170
     18  O2        17.8530   -5.9550   53.2320 O.3   220  INH220     -0.3610
     19  H7        17.9060   -5.7140   54.1490 H     220  INH220      0.2170
@<TRIPOS>BOND
     1    15    14    1
     2    14     1    1
     3    13     7    2
     4     9    11   ar
     5     9     8   ar
     6    11    12   ar
     7     8     7   am
     8     8    10   ar
     9     7     4    1
    10    12    10   ar
    11     1     4   ar
    12     1     3   ar
    13     4     6   ar
    14     3     5   ar
    15     6    16    1
    16     6     2   ar
    17     5     2   ar
    18     5    18    1
    19    16    17    1
    20    18    19    1
