@<TRIPOS>MOLECULE
/tmp/ewbell/vina_3eko_3eko_lig/vina/vina3.pdbqt
 19 20 0 0 0
SMALL
GASTEIGER

@<TRIPOS>ATOM
      1  C1        14.6600   -1.5390   50.7280 C.ar  220  INH220      0.0860
      2  C2        15.9970    0.7170   49.6290 C.ar  220  INH220      0.0740
      3  C3        14.0130   -0.2750   50.7250 C.ar  220  INH220      0.0740
      4  C8        15.9760   -1.6790   50.1850 C.ar  220  INH220      0.0990
      5  C9        14.6880    0.8460   50.1750 C.ar  220  INH220      0.0710
      6  C10       16.6340   -0.5510   49.6390 C.ar  220  INH220      0.0860
      7  C11       16.6610   -2.9900   50.1910 C.2   220  INH220      0.2670
      8  N1        17.1360   -3.6240   51.3670 N.ar  220  INH220     -0.2990
      9  C5        17.2430   -4.9950   51.6010 C.ar  220  INH220      0.0990
     10  C4        17.5810   -2.9830   52.5090 C.ar  220  INH220      0.0990
     11  C7        17.7420   -5.1950   52.8590 C.ar  220  INH220      0.0190
     12  C6        17.9580   -3.9300   53.4330 C.ar  220  INH220      0.0190
     13  O1        16.8340   -3.5600   49.1080 O.2   220  INH220     -0.2670
     14  O4        14.0220   -2.6290   51.2600 O.3   220  INH220     -0.3590
     15  H9        14.3300   -2.7750   52.1470 H     220  INH220      0.2170
     16  O3        17.8900   -0.6320   49.1080 O.3   220  INH220     -0.3590
     17  H8        17.9990    0.0430   48.4470 H     220  INH220      0.2170
     18  O2        14.0500    2.0520   50.1880 O.3   220  INH220     -0.3610
     19  H7        13.1650    1.9450   49.8610 H     220  INH220      0.2170
@<TRIPOS>BOND
     1    17    16    1
     2    16     6    1
     3    13     7    2
     4     2     6   ar
     5     2     5   ar
     6     6     4   ar
     7    19    18    1
     8     5    18    1
     9     5     3   ar
    10     4     7    1
    11     4     1   ar
    12     7     8   am
    13     3     1   ar
    14     1    14    1
    15    14    15    1
    16     8     9   ar
    17     8    10   ar
    18     9    11   ar
    19    10    12   ar
    20    11    12   ar
