@<TRIPOS>MOLECULE
/tmp/ewbell/vina_3eko_3eko_lig/vina/vina2.pdbqt
 19 20 0 0 0
SMALL
GASTEIGER

@<TRIPOS>ATOM
      1  C1        17.1680   -2.4540   52.3250 C.ar  220  INH220      0.0860
      2  C2        17.5470   -4.9700   51.0570 C.ar  220  INH220      0.0740
      3  C3        17.4110   -3.6080   53.1180 C.ar  220  INH220      0.0740
      4  C8        17.1120   -2.5550   50.8990 C.ar  220  INH220      0.0990
      5  C9        17.5990   -4.8600   52.4750 C.ar  220  INH220      0.0710
      6  C10       17.3020   -3.8110   50.2760 C.ar  220  INH220      0.0860
      7  C11       16.8510   -1.3600   50.0680 C.2   220  INH220      0.2670
      8  N1        15.6010   -0.6930   50.0190 N.ar  220  INH220     -0.2990
      9  C5        15.3790    0.6650   49.7880 C.ar  220  INH220      0.0990
     10  C4        14.3620   -1.2800   50.1980 C.ar  220  INH220      0.0990
     11  C7        14.0330    0.9090   49.8240 C.ar  220  INH220      0.0190
     12  C6        13.3900   -0.3140   50.0810 C.ar  220  INH220      0.0190
     13  O1        17.7740   -0.9250   49.3710 O.2   220  INH220     -0.2670
     14  O4        16.9810   -1.2400   52.9320 O.3   220  INH220     -0.3590
     15  H9        17.0050   -0.5510   52.2780 H     220  INH220      0.2170
     16  O3        17.2590   -3.9600   48.9190 O.3   220  INH220     -0.3590
     17  H8        17.7590   -3.2640   48.5070 H     220  INH220      0.2170
     18  O2        17.8250   -5.9560   53.2560 O.3   220  INH220     -0.3610
     19  H7        18.7580   -6.0510   53.4050 H     220  INH220      0.2170
@<TRIPOS>BOND
     1    17    16    1
     2    16     6    1
     3    13     7    2
     4     9    11   ar
     5     9     8   ar
     6    11    12   ar
     7     8     7   am
     8     8    10   ar
     9     7     4    1
    10    12    10   ar
    11     6     4   ar
    12     6     2   ar
    13     4     1   ar
    14     2     5   ar
    15    15    14    1
    16     1    14    1
    17     1     3   ar
    18     5     3   ar
    19     5    18    1
    20    18    19    1
