@<TRIPOS>MOLECULE
/tmp/ewbell/vina_3eko_3eko_lig/vina/vina4.pdbqt
 19 20 0 0 0
SMALL
GASTEIGER

@<TRIPOS>ATOM
      1  C1        16.6130   -0.4970   49.6410 C.ar  220  INH220      0.0860
      2  C2        13.9840   -0.2870   50.7040 C.ar  220  INH220      0.0740
      3  C3        15.9540    0.7620   49.6360 C.ar  220  INH220      0.0740
      4  C8        15.9600   -1.6520   50.1760 C.ar  220  INH220      0.0990
      5  C9        14.6420    0.8570   50.1680 C.ar  220  INH220      0.0710
      6  C10       14.6520   -1.5380   50.7030 C.ar  220  INH220      0.0860
      7  C11       16.6360   -2.9680   50.1780 C.2   220  INH220      0.2670
      8  N1        17.1160   -3.6040   51.3510 N.ar  220  INH220     -0.2990
      9  C5        17.2160   -4.9750   51.5850 C.ar  220  INH220      0.0990
     10  C4        17.5740   -2.9650   52.4880 C.ar  220  INH220      0.0990
     11  C7        17.7240   -5.1780   52.8390 C.ar  220  INH220      0.0190
     12  C6        17.9520   -3.9140   53.4100 C.ar  220  INH220      0.0190
     13  O1        16.7980   -3.5400   49.0940 O.2   220  INH220     -0.2670
     14  O4        17.8790   -0.6040   49.1270 O.3   220  INH220     -0.3590
     15  H9        18.1400    0.2290   48.7510 H     220  INH220      0.2170
     16  O3        13.9860   -2.6110   51.2250 O.3   220  INH220     -0.3590
     17  H8        13.9870   -3.3220   50.5940 H     220  INH220      0.2170
     18  O2        14.0250    2.0740   50.1460 O.3   220  INH220     -0.3610
     19  H7        13.1570    1.9950   50.5230 H     220  INH220      0.2170
@<TRIPOS>BOND
     1    15    14    1
     2    13     7    2
     3    14     1    1
     4     3     1   ar
     5     3     5   ar
     6     1     4   ar
     7    18     5    1
     8    18    19    1
     9     5     2   ar
    10     4     7    1
    11     4     6   ar
    12     7     8   am
    13    17    16    1
    14     6     2   ar
    15     6    16    1
    16     8     9   ar
    17     8    10   ar
    18     9    11   ar
    19    10    12   ar
    20    11    12   ar
