@<TRIPOS>MOLECULE
/tmp/ewbell/vina_3eko_3eko_lig/vina/vina5.pdbqt
 19 20 0 0 0
SMALL
GASTEIGER

@<TRIPOS>ATOM
      1  C1        16.5410   -1.0460   51.0590 C.ar  220  INH220      0.0860
      2  C2        14.9030    0.2350   49.1190 C.ar  220  INH220      0.0740
      3  C3        17.0960   -0.0290   50.2360 C.ar  220  INH220      0.0740
      4  C8        15.1700   -1.4260   50.9140 C.ar  220  INH220      0.0990
      5  C9        16.2700    0.6040   49.2700 C.ar  220  INH220      0.0710
      6  C10       14.3610   -0.7830   49.9460 C.ar  220  INH220      0.0860
      7  C11       14.5870   -2.4890   51.7620 C.2   220  INH220      0.2670
      8  N1        13.5160   -2.2760   52.6660 N.ar  220  INH220     -0.2990
      9  C5        12.5410   -3.1970   53.0490 C.ar  220  INH220      0.0990
     10  C4        13.2430   -1.0970   53.3340 C.ar  220  INH220      0.0990
     11  C7        11.6860   -2.6000   53.9340 C.ar  220  INH220      0.0190
     12  C6        12.1260   -1.2770   54.1170 C.ar  220  INH220      0.0190
     13  O1        15.0680   -3.6250   51.6810 O.2   220  INH220     -0.2670
     14  O4        17.3280   -1.6680   51.9930 O.3   220  INH220     -0.3590
     15  H9        17.0340   -2.5650   52.1080 H     220  INH220      0.2170
     16  O3        13.0470   -1.1090   49.7690 O.3   220  INH220     -0.3590
     17  H8        12.6030   -0.4020   49.3150 H     220  INH220      0.2170
     18  O2        16.8250    1.5730   48.4860 O.3   220  INH220     -0.3610
     19  H7        17.5200    1.1940   47.9600 H     220  INH220      0.2170
@<TRIPOS>BOND
     1    19    18    1
     2    18     5    1
     3     2     5   ar
     4     2     6   ar
     5     5     3   ar
     6    17    16    1
     7    16     6    1
     8     6     4   ar
     9     3     1   ar
    10     4     1   ar
    11     4     7    1
    12     1    14    1
    13    13     7    2
    14     7     8   am
    15    14    15    1
    16     8     9   ar
    17     8    10   ar
    18     9    11   ar
    19    10    12   ar
    20    11    12   ar
