@<TRIPOS>MOLECULE
./ligand/1q72_lig.pdb
 44 46 0 0 0
SMALL
GASTEIGER

@<TRIPOS>ATOM
      1  C1        26.3810   -4.0800   26.7430 C.3   445  INH445      0.0817
      2  O1        25.5390   -2.9110   26.5920 O.3   445  INH445     -0.4675
      3  C2        24.2900   -3.0860   26.1160 C.2   445  INH445      0.3190
      4  O2        23.6110   -4.0370   26.3700 O.2   445  INH445     -0.2502
      5  C3        23.9380   -1.8880   25.2240 C.3   445  INH445      0.1357
      6  C4        22.5220   -1.3510   25.6380 C.3   445  INH445     -0.0040
      7  N1        21.5380   -2.4100   25.3550 N.4   445  INH445      0.2382
      8  C5        20.2770   -2.2520   26.1220 C.3   445  INH445     -0.0426
      9  C6        22.0760   -0.0980   24.8530 C.3   445  INH445     -0.0037
     10  C7        21.2930   -0.6930   23.6530 C.3   445  INH445     -0.0044
     11  C8        21.3600   -2.2180   23.9070 C.3   445  INH445     -0.0172
     12  C9        22.5960   -2.8680   23.2080 C.3   445  INH445      0.0285
     13  C10       23.9070   -2.2180   23.6970 C.3   445  INH445      0.1266
     14  O3        25.0570   -3.0600   23.3510 O.3   445  INH445     -0.4566
     15  C11       26.2790   -2.4850   23.2340 C.2   445  INH445      0.3395
     16  O4        26.4940   -1.3160   23.4500 O.2   445  INH445     -0.2450
     17  C12       27.3340   -3.4750   22.7920 C.ar  445  INH445      0.0590
     18  C13       28.6940   -3.1000   22.9020 C.ar  445  INH445     -0.0478
     19  C14       29.6990   -4.0100   22.4880 C.ar  445  INH445     -0.0610
     20  C15       29.3650   -5.2450   21.9850 C.ar  445  INH445     -0.0617
     21  C16       28.0320   -5.6150   21.8770 C.ar  445  INH445     -0.0610
     22  C17       27.0100   -4.7280   22.2830 C.ar  445  INH445     -0.0478
     23  H1        27.3620   -3.7770   27.1390 H     445  INH445      0.0661
     24  H2        26.5140   -4.5650   25.7650 H     445  INH445      0.0661
     25  H3        25.9070   -4.7860   27.4410 H     445  INH445      0.0661
     26  H4        24.6890   -1.1020   25.3920 H     445  INH445      0.0507
     27  H5        22.5310   -1.1170   26.7130 H     445  INH445      0.0860
     28  H6        21.9210   -3.3210   25.5540 H     445  INH445      0.2036
     29  H7        19.5880   -3.0700   25.8670 H     445  INH445      0.0778
     30  H8        19.8120   -1.2880   25.8680 H     445  INH445      0.0778
     31  H9        20.4970   -2.2810   27.1990 H     445  INH445      0.0778
     32  H10       22.9450    0.4820   24.5090 H     445  INH445      0.0322
     33  H11       21.4280    0.5430   25.4680 H     445  INH445      0.0322
     34  H12       21.7740   -0.4310   22.6990 H     445  INH445      0.0322
     35  H13       20.2510   -0.3400   23.6480 H     445  INH445      0.0322
     36  H14       20.4340   -2.6980   23.5570 H     445  INH445      0.0852
     37  H15       22.5090   -2.7300   22.1200 H     445  INH445      0.0356
     38  H16       22.6180   -3.9430   23.4410 H     445  INH445      0.0356
     39  H17       24.0120   -1.2650   23.1580 H     445  INH445      0.0746
     40  H18       28.9640   -2.1280   23.2980 H     445  INH445      0.0626
     41  H19       30.7430   -3.7290   22.5690 H     445  INH445      0.0618
     42  H20       30.1440   -5.9310   21.6720 H     445  INH445      0.0618
     43  H21       27.7740   -6.5900   21.4790 H     445  INH445      0.0618
     44  H22       25.9710   -5.0250   22.1980 H     445  INH445      0.0626
@<TRIPOS>BOND
     1     1    25    1
     2     1    24    1
     3     1    23    1
     4     1     2    1
     5     2     3    1
     6     3     5    1
     7     3     4    2
     8     5    26    1
     9     5    13    1
    10     5     6    1
    11     6    27    1
    12     6     9    1
    13     6     7    1
    14     7    28    1
    15     7    11    1
    16     7     8    1
    17     8    31    1
    18     8    30    1
    19     8    29    1
    20     9    10    1
    21     9    33    1
    22     9    32    1
    23    10    11    1
    24    10    35    1
    25    10    34    1
    26    11    36    1
    27    11    12    1
    28    12    38    1
    29    12    37    1
    30    12    13    1
    31    13    39    1
    32    13    14    1
    33    14    15    1
    34    15    17    1
    35    15    16    2
    36    17    22   ar
    37    17    18   ar
    38    18    40    1
    39    18    19   ar
    40    19    41    1
    41    19    20   ar
    42    20    42    1
    43    20    21   ar
    44    21    43    1
    45    21    22   ar
    46    22    44    1
