@<TRIPOS>MOLECULE
/tmp/ewbell/vina_1q72_1q72_lig/vina/vina2.pdbqt
 23 25 0 0 0
SMALL
GASTEIGER

@<TRIPOS>ATOM
      1  C3        23.4640   -3.8140   25.8710 C.3   445  INH445      0.1460
      2  C4        21.9160   -3.7950   25.6110 C.3   445  INH445      0.2040
      3  N1        21.6760   -4.3670   24.2750 N.4   445  INH445     -0.0650
      4  C5        20.2870   -4.8590   24.0940 C.3   445  INH445      0.2700
      5  C6        21.3000   -2.3790   25.6130 C.3   445  INH445      0.0360
      6  C7        21.3670   -1.9620   24.1200 C.3   445  INH445      0.0350
      7  C8        21.9900   -3.2020   23.4340 C.3   445  INH445      0.1910
      8  C9        23.5460   -3.1020   23.3590 C.3   445  INH445      0.0660
      9  C10       24.1540   -2.9490   24.7690 C.3   445  INH445      0.1490
     10  H6        22.3110   -5.1280   24.0890 H     445  INH445      0.2800
     11  O3        25.5920   -3.2390   24.7420 O.3   445  INH445     -0.3110
     12  C11       26.3700   -2.6120   23.8270 C.2   445  INH445      0.2930
     13  O4        26.3090   -1.4290   23.5910 O.2   445  INH445     -0.2590
     14  C12       27.3120   -3.5680   23.1300 C.ar  445  INH445      0.0390
     15  C17       28.6850   -3.3530   23.0790 C.ar  445  INH445      0.0170
     16  C16       29.5250   -4.2800   22.4200 C.ar  445  INH445      0.0010
     17  C15       28.9870   -5.4090   21.8170 C.ar  445  INH445      0.0000
     18  C14       27.6300   -5.6310   21.8590 C.ar  445  INH445      0.0010
     19  C13       26.7650   -4.7180   22.5120 C.ar  445  INH445      0.0170
     20  C2        23.9380   -5.2730   25.9100 C.2   445  INH445      0.2670
     21  O2        23.9920   -6.0520   25.0040 O.2   445  INH445     -0.2650
     22  O1        24.3130   -5.5670   27.1720 O.3   445  INH445     -0.3260
     23  C1        25.6910   -5.3280   27.5460 C.3   445  INH445      0.2130
@<TRIPOS>BOND
     1    17    18   ar
     2    17    16   ar
     3    18    19   ar
     4    16    15   ar
     5    19    14   ar
     6    15    14   ar
     7    14    12    1
     8     8     7    1
     9     8     9    1
    10     7     6    1
    11     7     3    1
    12    13    12    2
    13    12    11    1
    14    10     3    1
    15     4     3    1
    16     6     5    1
    17     3     2    1
    18    11     9    1
    19     9     1    1
    20    21    20    2
    21     2     5    1
    22     2     1    1
    23     1    20    1
    24    20    22    1
    25    22    23    1
