@<TRIPOS>MOLECULE
/tmp/ewbell/vina_1q72_1q72_lig/vina/vina3.pdbqt
 23 25 0 0 0
SMALL
GASTEIGER

@<TRIPOS>ATOM
      1  C3        23.9730   -3.7190   23.9880 C.3   445  INH445      0.1460
      2  C4        25.1210   -4.7820   23.8560 C.3   445  INH445      0.2040
      3  N1        25.9260   -4.7300   25.0880 N.4   445  INH445     -0.0650
      4  C5        26.7140   -5.9670   25.3200 C.3   445  INH445      0.2700
      5  C6        26.0820   -4.5190   22.6760 C.3   445  INH445      0.0360
      6  C7        27.2040   -3.6620   23.3190 C.3   445  INH445      0.0350
      7  C8        26.7670   -3.5580   24.7990 C.3   445  INH445      0.1910
      8  C9        25.8850   -2.2940   25.0550 C.3   445  INH445      0.0660
      9  C10       24.6300   -2.3110   24.1590 C.3   445  INH445      0.1490
     10  H6        25.3430   -4.5670   25.8940 H     445  INH445      0.2800
     11  O3        23.6320   -1.3580   24.6570 O.3   445  INH445     -0.3110
     12  C11       23.1340   -0.4270   23.8070 C.2   445  INH445      0.2930
     13  O4        23.7550    0.5380   23.4300 O.2   445  INH445     -0.2590
     14  C12       21.7100   -0.7330   23.3980 C.ar  445  INH445      0.0390
     15  C17       21.4070   -1.5560   22.3190 C.ar  445  INH445      0.0170
     16  C16       20.0600   -1.8160   21.9810 C.ar  445  INH445      0.0010
     17  C15       19.0300   -1.2510   22.7190 C.ar  445  INH445      0.0000
     18  C14       19.3160   -0.4330   23.7870 C.ar  445  INH445      0.0010
     19  C13       20.6580   -0.1560   24.1480 C.ar  445  INH445      0.0170
     20  C2        23.0560   -4.1260   25.1480 C.2   445  INH445      0.2670
     21  O2        23.3710   -4.4400   26.2580 O.2   445  INH445     -0.2650
     22  O1        21.7780   -4.0720   24.7210 O.3   445  INH445     -0.3260
     23  C1        20.7680   -3.6140   25.6530 C.3   445  INH445      0.2130
@<TRIPOS>BOND
     1    16    15   ar
     2    16    17   ar
     3    15    14   ar
     4     5     6    1
     5     5     2    1
     6    17    18   ar
     7     6     7    1
     8    14    12    1
     9    14    19   ar
    10    13    12    2
    11    18    19   ar
    12    12    11    1
    13     2     1    1
    14     2     3    1
    15     1     9    1
    16     1    20    1
    17     9    11    1
    18     9     8    1
    19    22    20    1
    20    22    23    1
    21     7     8    1
    22     7     3    1
    23     3     4    1
    24     3    10    1
    25    20    21    2
