@<TRIPOS>MOLECULE
/tmp/ewbell/vina_1q72_1q72_lig/vina/vina4.pdbqt
 23 25 0 0 0
SMALL
GASTEIGER

@<TRIPOS>ATOM
      1  C3        28.0300   -6.5320   22.6280 C.3   445  INH445      0.1460
      2  C4        28.0730   -8.1000   22.5610 C.3   445  INH445      0.2040
      3  N1        27.1380   -8.5320   21.5080 N.4   445  INH445     -0.0650
      4  C5        27.4240   -9.8990   21.0020 C.3   445  INH445      0.2700
      5  C6        27.6310   -8.7920   23.8690 C.3   445  INH445      0.0360
      6  C7        26.1100   -9.0120   23.6570 C.3   445  INH445      0.0350
      7  C8        25.8640   -8.4430   22.2390 C.3   445  INH445      0.1910
      8  C9        25.4710   -6.9320   22.2810 C.3   445  INH445      0.0660
      9  C10       26.5690   -6.0990   22.9750 C.3   445  INH445      0.1490
     10  H6        27.1530   -7.8940   20.7280 H     445  INH445      0.2800
     11  O3        26.3940   -4.6730   22.6790 O.3   445  INH445     -0.3110
     12  C11       26.3660   -3.7890   23.7060 C.2   445  INH445      0.2930
     13  O4        27.2320   -3.7070   24.5450 O.2   445  INH445     -0.2590
     14  C12       25.1210   -2.9300   23.6850 C.ar  445  INH445      0.0390
     15  C17       25.1500   -1.5730   23.9900 C.ar  445  INH445      0.0170
     16  C16       23.9600   -0.8120   23.9490 C.ar  445  INH445      0.0010
     17  C15       22.7550   -1.4110   23.6080 C.ar  445  INH445      0.0000
     18  C14       22.7140   -2.7520   23.3070 C.ar  445  INH445      0.0010
     19  C13       23.8920   -3.5390   23.3390 C.ar  445  INH445      0.0170
     20  C2        28.5500   -5.9690   21.2990 C.2   445  INH445      0.2670
     21  O2        27.9930   -5.9480   20.2410 O.2   445  INH445     -0.2650
     22  O1        29.7860   -5.4680   21.5020 O.3   445  INH445     -0.3260
     23  C1        29.9170   -4.3040   22.3530 C.3   445  INH445      0.2130
@<TRIPOS>BOND
     1    21    20    2
     2    10     3    1
     3     4     3    1
     4    20    22    1
     5    20     1    1
     6    22    23    1
     7     3     7    1
     8     3     2    1
     9     7     8    1
    10     7     6    1
    11     8     9    1
    12     2     1    1
    13     2     5    1
    14     1     9    1
    15    11     9    1
    16    11    12    1
    17    18    19   ar
    18    18    17   ar
    19    19    14   ar
    20    17    16   ar
    21     6     5    1
    22    14    12    1
    23    14    15   ar
    24    12    13    2
    25    16    15   ar
