@<TRIPOS>MOLECULE
/tmp/ewbell/vina_1q72_1q72_lig/vina/vina5.pdbqt
 23 25 0 0 0
SMALL
GASTEIGER

@<TRIPOS>ATOM
      1  C3        21.2200   -1.4420   22.9630 C.3   445  INH445      0.1460
      2  C4        19.9870   -1.8010   22.0600 C.3   445  INH445      0.2040
      3  N1        19.2940   -2.9450   22.6770 N.4   445  INH445     -0.0650
      4  C5        17.8840   -3.0790   22.2330 C.3   445  INH445      0.2700
      5  C6        20.3680   -2.2240   20.6240 C.3   445  INH445      0.0360
      6  C7        20.4990   -3.7660   20.7340 C.3   445  INH445      0.0350
      7  C8        20.1520   -4.0480   22.2150 C.3   445  INH445      0.1910
      8  C9        21.4240   -4.0420   23.1200 C.3   445  INH445      0.0660
      9  C10       22.1600   -2.6890   23.0230 C.3   445  INH445      0.1490
     10  H6        19.3070   -2.8740   23.6830 H     445  INH445      0.2800
     11  O3        23.1070   -2.5390   24.1330 O.3   445  INH445     -0.3110
     12  C11       24.2670   -1.8730   23.9200 C.2   445  INH445      0.2930
     13  O4        24.3910   -0.6790   24.0610 O.2   445  INH445     -0.2590
     14  C12       25.3800   -2.7940   23.4740 C.ar  445  INH445      0.0390
     15  C17       25.1380   -4.0890   23.0250 C.ar  445  INH445      0.0170
     16  C16       26.2120   -4.9090   22.6130 C.ar  445  INH445      0.0010
     17  C15       27.5150   -4.4330   22.6550 C.ar  445  INH445      0.0000
     18  C14       27.7670   -3.1560   23.0990 C.ar  445  INH445      0.0010
     19  C13       26.7090   -2.3120   23.5180 C.ar  445  INH445      0.0170
     20  C2        20.7080   -0.9780   24.3330 C.2   445  INH445      0.2670
     21  O2        20.8970    0.0740   24.8690 O.2   445  INH445     -0.2650
     22  O1        19.9700   -1.9700   24.8710 O.3   445  INH445     -0.3260
     23  C1        20.2160   -2.3280   26.2530 C.3   445  INH445      0.2130
@<TRIPOS>BOND
     1     5     6    1
     2     5     2    1
     3     6     7    1
     4     2     3    1
     5     2     1    1
     6     7     3    1
     7     7     8    1
     8     4     3    1
     9    16    17   ar
    10    16    15   ar
    11    17    18   ar
    12     3    10    1
    13     1     9    1
    14     1    20    1
    15     9     8    1
    16     9    11    1
    17    15    14   ar
    18    18    19   ar
    19    14    19   ar
    20    14    12    1
    21    12    13    2
    22    12    11    1
    23    20    21    2
    24    20    22    1
    25    22    23    1
