@<TRIPOS>MOLECULE
/tmp/ewbell/vina_1q72_1q72_lig/vina/vina1.pdbqt
 23 25 0 0 0
SMALL
GASTEIGER

@<TRIPOS>ATOM
      1  C3        23.7190   -2.2140   25.3420 C.3   445  INH445      0.1460
      2  C4        22.2850   -1.6360   25.6120 C.3   445  INH445      0.2040
      3  N1        21.3030   -2.6090   25.1020 N.4   445  INH445     -0.0650
      4  C5        19.9570   -2.4480   25.7050 C.3   445  INH445      0.2700
      5  C6        22.0070   -0.2960   24.8950 C.3   445  INH445      0.0360
      6  C7        21.3710   -0.7390   23.5510 C.3   445  INH445      0.0350
      7  C8        21.3360   -2.2820   23.6670 C.3   445  INH445      0.1910
      8  C9        22.6260   -2.9370   23.0810 C.3   445  INH445      0.0660
      9  C10       23.8850   -2.4070   23.8000 C.3   445  INH445      0.1490
     10  H6        21.6150   -3.5540   25.2630 H     445  INH445      0.2800
     11  O3        25.0330   -3.2790   23.5330 O.3   445  INH445     -0.3110
     12  C11       26.2600   -2.7220   23.3910 C.2   445  INH445      0.2930
     13  O4        26.5020   -1.5620   23.6270 O.2   445  INH445     -0.2590
     14  C12       27.2840   -3.7170   22.8920 C.ar  445  INH445      0.0390
     15  C17       26.9220   -4.9450   22.3460 C.ar  445  INH445      0.0170
     16  C16       27.9170   -5.8380   21.8890 C.ar  445  INH445      0.0010
     17  C15       29.2600   -5.5010   21.9820 C.ar  445  INH445      0.0000
     18  C14       29.6300   -4.2920   22.5220 C.ar  445  INH445      0.0010
     19  C13       28.6540   -3.3760   22.9880 C.ar  445  INH445      0.0170
     20  C2        23.8920   -3.5030   26.1560 C.2   445  INH445      0.2670
     21  O2        23.1880   -4.4690   26.1590 O.2   445  INH445     -0.2650
     22  O1        25.0100   -3.3900   26.9010 O.3   445  INH445     -0.3260
     23  C1        26.0520   -4.3790   26.7190 C.3   445  INH445      0.2130
@<TRIPOS>BOND
     1    16    17   ar
     2    16    15   ar
     3    17    18   ar
     4    15    14   ar
     5    18    19   ar
     6    14    19   ar
     7    14    12    1
     8     8     7    1
     9     8     9    1
    10    12    11    1
    11    12    13    2
    12    11     9    1
    13     6     7    1
    14     6     5    1
    15     7     3    1
    16     9     1    1
    17     5     2    1
    18     3    10    1
    19     3     2    1
    20     3     4    1
    21     1     2    1
    22     1    20    1
    23    20    21    2
    24    20    22    1
    25    23    22    1
