@<TRIPOS>MOLECULE
./ligand/2rde_lig.pdb
 68 74 0 0 0
SMALL
GASTEIGER

@<TRIPOS>ATOM
      1  C1        -1.0740  -19.3040   -7.6290 C.ar  454  INH454      0.1005
      2  C2         4.2150  -15.4780   -7.2090 C.ar  454  INH454      0.1005
      3  C3        -2.2630  -17.5930   -7.0670 C.ar  454  INH454      0.1721
      4  C4         4.0320  -14.5940   -5.2360 C.ar  454  INH454      0.1721
      5  C5        -2.2420  -17.7270   -8.5190 C.ar  454  INH454      0.1712
      6  C6         5.0080  -15.6850   -5.2120 C.ar  454  INH454      0.1712
      7  C7        -3.0300  -16.4690   -6.5010 C.ar  454  INH454      0.2803
      8  C8         3.7840  -13.8820   -3.9700 C.ar  454  INH454      0.2803
      9  C9        -3.6150  -15.8160   -8.6810 C.ar  454  INH454      0.1950
     10  C10        5.3520  -15.2910   -2.9190 C.ar  454  INH454      0.1950
     11  C11        1.9710  -20.9010   -9.7500 C.3   454  INH454      0.0837
     12  C12        4.7260  -18.3650  -10.1030 C.3   454  INH454      0.0837
     13  C13        0.8990  -20.2250  -10.5770 C.3   454  INH454      0.1139
     14  C14        5.4470  -18.5790   -8.7920 C.3   454  INH454      0.1139
     15  C15        1.0630  -18.7170  -10.6360 C.3   454  INH454      0.1241
     16  C16        4.5370  -19.1010   -7.6900 C.3   454  INH454      0.1241
     17  C17       -0.3500  -18.2920  -10.8680 C.3   454  INH454      0.1292
     18  C18        5.2390  -18.6210   -6.4600 C.3   454  INH454      0.1292
     19  C19       -1.2120  -19.2910  -10.1190 C.3   454  INH454      0.1667
     20  C20        5.9150  -17.3100   -6.8510 C.3   454  INH454      0.1667
     21  N1        -1.5230  -18.5910   -6.5780 N.ar  454  INH454     -0.2286
     22  N2         3.5840  -14.5160   -6.4980 N.ar  454  INH454     -0.2286
     23  N3        -2.9240  -16.8310   -9.2660 N.ar  454  INH454     -0.1963
     24  N4         5.6240  -15.9890   -4.0460 N.ar  454  INH454     -0.1963
     25  N5        -1.5070  -18.7840   -8.7810 N.ar  454  INH454     -0.2854
     26  N6         5.0660  -16.1780   -6.4320 N.ar  454  INH454     -0.2854
     27  N7        -3.6650  -15.6450   -7.3440 N.ar  454  INH454     -0.2934
     28  N8         4.4590  -14.2760   -2.8850 N.ar  454  INH454     -0.2934
     29  N9        -4.2780  -14.9520   -9.4850 N.pl3 454  INH454     -0.3289
     30  N10        6.0000  -15.6270   -1.7780 N.pl3 454  INH454     -0.3289
     31  O1         1.7870  -15.9670  -10.8420 O.2   454  INH454     -0.5172
     32  O2         2.6140  -20.4630   -5.9500 O.2   454  INH454     -0.5172
     33  O3        -3.0910  -16.2950   -5.2630 O.2   454  INH454     -0.2654
     34  O4         2.9680  -12.9410   -3.8920 O.2   454  INH454     -0.2654
     35  O5         3.6450  -16.5870  -12.3390 O.3   454  INH454     -0.4373
     36  O6         2.8700  -22.4980   -7.4050 O.3   454  INH454     -0.4373
     37  O7         1.8610  -20.4710   -8.3980 O.3   454  INH454     -0.3248
     38  O8         3.6950  -17.3850   -9.9450 O.3   454  INH454     -0.3248
     39  O9        -0.3890  -20.4520   -9.9940 O.3   454  INH454     -0.3456
     40  O10        6.0150  -17.3540   -8.2790 O.3   454  INH454     -0.3456
     41  O11        2.0000  -18.3340  -11.6540 O.3   454  INH454     -0.3187
     42  O12        4.3900  -20.5320   -7.7610 O.3   454  INH454     -0.3187
     43  O13       -0.6260  -18.3460  -12.2710 O.3   454  INH454     -0.3846
     44  O14        6.2090  -19.6040   -6.0620 O.3   454  INH454     -0.3846
     45  P1         2.7860  -17.0240  -11.1950 P.3   454  INH454      0.2131
     46  P2         2.9040  -21.0000   -7.3280 P.3   454  INH454      0.2131
     47  H1        -0.4470  -20.1800   -7.5510 H     454  INH454      0.1030
     48  H2         4.0580  -15.6610   -8.2620 H     454  INH454      0.1030
     49  H3         1.8420  -21.9920   -9.8010 H     454  INH454      0.0591
     50  H4         2.9630  -20.6340  -10.1430 H     454  INH454      0.0591
     51  H5         4.2770  -19.3150  -10.4290 H     454  INH454      0.0591
     52  H6         5.4460  -18.0110  -10.8560 H     454  INH454      0.0591
     53  H7         0.9910  -20.6530  -11.5860 H     454  INH454      0.0647
     54  H8         6.2260  -19.3170   -9.0340 H     454  INH454      0.0647
     55  H9         1.4960  -18.2400   -9.7450 H     454  INH454      0.0655
     56  H10        3.4970  -18.7460   -7.7430 H     454  INH454      0.0655
     57  H11       -0.5440  -17.2660  -10.5210 H     454  INH454      0.0666
     58  H12        4.5540  -18.4670   -5.6130 H     454  INH454      0.0666
     59  H13       -2.1640  -19.4860  -10.6340 H     454  INH454      0.0866
     60  H14        6.8990  -17.1830   -6.3770 H     454  INH454      0.0866
     61  H15       -4.1920  -14.8810   -6.9720 H     454  INH454      0.1716
     62  H16        4.2980  -13.8040   -2.0180 H     454  INH454      0.1716
     63  H17       -4.1450  -15.2150  -10.4410 H     454  INH454      0.1451
     64  H18       -4.8180  -14.1710   -9.1710 H     454  INH454      0.1451
     65  H19        6.6270  -16.3890   -1.9410 H     454  INH454      0.1451
     66  H20        5.8700  -15.1760   -0.8950 H     454  INH454      0.1451
     67  H21       -1.5660  -18.3580  -12.4090 H     454  INH454      0.2101
     68  H22        6.4230  -20.1570   -6.8040 H     454  INH454      0.2101
@<TRIPOS>BOND
     1     1    25   ar
     2     1    47    1
     3     1    21   ar
     4     2    26   ar
     5     2    48    1
     6     2    22   ar
     7     3    21   ar
     8     3     7   ar
     9     3     5   ar
    10     4    22   ar
    11     4     8   ar
    12     4     6   ar
    13     5    25   ar
    14     5    23   ar
    15     6    26   ar
    16     6    24   ar
    17     7    27   ar
    18     7    33    2
    19     8    28   ar
    20     8    34    2
    21     9    23   ar
    22     9    29    1
    23     9    27   ar
    24    10    24   ar
    25    10    30    1
    26    10    28   ar
    27    11    50    1
    28    11    49    1
    29    11    37    1
    30    11    13    1
    31    12    38    1
    32    12    52    1
    33    12    51    1
    34    12    14    1
    35    13    53    1
    36    13    39    1
    37    13    15    1
    38    14    54    1
    39    14    40    1
    40    14    16    1
    41    15    55    1
    42    15    41    1
    43    15    17    1
    44    16    56    1
    45    16    42    1
    46    16    18    1
    47    17    57    1
    48    17    43    1
    49    17    19    1
    50    18    58    1
    51    18    44    1
    52    18    20    1
    53    19    59    1
    54    19    39    1
    55    19    25    1
    56    20    60    1
    57    20    40    1
    58    20    26    1
    59    27    61    1
    60    28    62    1
    61    29    64    1
    62    29    63    1
    63    30    66    1
    64    30    65    1
    65    31    45    2
    66    32    46    2
    67    35    45    1
    68    36    46    1
    69    37    46    1
    70    38    45    1
    71    41    45    1
    72    42    46    1
    73    43    67    1
    74    44    68    1
