@<TRIPOS>MOLECULE
/tmp/ewbell/vina_2rde_2rde_lig/vina/vina2.pdbqt
 60 66 0 0 0
SMALL
GASTEIGER

@<TRIPOS>ATOM
      1  C11        4.9290  -18.5030  -10.4210 C.3   454  INH454      0.2150
      2  C12        2.1620  -21.0270  -10.0790 C.3   454  INH454      0.2150
      3  C13        5.7050  -18.8070   -9.1570 C.3   454  INH454      0.1800
      4  C14        1.0560  -20.3020  -10.8100 C.3   454  INH454      0.1800
      5  C15        4.8410  -19.4140   -8.0670 C.3   454  INH454      0.1970
      6  C16        1.2060  -18.7890  -10.7670 C.3   454  INH454      0.1970
      7  C17        5.5910  -18.9890   -6.8480 C.3   454  INH454      0.1990
      8  C18       -0.2100  -18.3360  -10.9340 C.3   454  INH454      0.1990
      9  C19        6.1800  -17.6290   -7.1760 C.3   454  INH454      0.2620
     10  C20       -1.0710  -19.4130  -10.2800 C.3   454  INH454      0.2620
     11  O1         3.0730  -20.8220   -6.3290 O.2   454  INH454     -0.6310
     12  O2         2.0160  -15.9740  -10.8250 O.2   454  INH454     -0.6310
     13  O7         3.9470  -17.5120  -10.1420 O.3   454  INH454     -0.2940
     14  O8         2.1550  -20.6690   -8.6930 O.3   454  INH454     -0.2940
     15  O9         6.2350  -17.5980   -8.6030 O.3   454  INH454     -0.3530
     16  O10       -0.2430  -20.5800  -10.2420 O.3   454  INH454     -0.3530
     17  O11        4.6980  -20.8310   -8.2430 O.3   454  INH454     -0.2860
     18  O12        2.0970  -18.3180  -11.7950 O.3   454  INH454     -0.2860
     19  P1         3.2580  -21.2940   -7.7370 P.3   454  INH454      0.3930
     20  P2         2.9640  -17.0470  -11.2950 P.3   454  INH454      0.3930
     21  N5         5.2750  -16.5760   -6.7220 N.pl3 454  INH454     -0.2970
     22  C1         4.4730  -15.8390   -7.4960 C.3   454  INH454      0.1880
     23  N1         3.7650  -14.9610   -6.7610 N.pl3 454  INH454     -0.3450
     24  C3         4.1220  -15.1370   -5.4860 C.2   454  INH454      0.1470
     25  H1         3.0830  -14.2880   -7.1120 H     454  INH454      0.1670
     26  C7         3.7530  -14.5370   -4.1920 C.2   454  INH454      0.2900
     27  C5         5.1140  -16.2060   -5.4720 C.2   454  INH454      0.1590
     28  N7         4.3500  -14.9980   -3.0850 N.am  454  INH454     -0.1540
     29  O3         2.9090  -13.6150   -4.1320 O.2   454  INH454     -0.2650
     30  C9         5.2640  -15.9880   -3.1280 C.3   454  INH454      0.6800
     31  H15        4.1120  -14.5950   -2.2010 H     454  INH454      0.1870
     32  N3         5.6470  -16.5850   -4.2890 N.pl3 454  INH454     -0.1740
     33  N9         5.8360  -16.4130   -1.9770 N.3   454  INH454     -0.2340
     34  H3         6.3440  -17.3290   -4.2670 H     454  INH454      0.1860
     35  H18        5.6360  -16.0510   -1.0660 H     454  INH454      0.1740
     36  H17        6.4880  -17.1440   -2.1770 H     454  INH454      0.1740
     37  O13        6.6320  -19.9360   -6.5900 O.3   454  INH454     -0.3880
     38  H21        6.6700  -20.1210   -5.6590 H     454  INH454      0.2100
     39  O5         3.2090  -22.7870   -7.8120 O.3   454  INH454     -0.3070
     40  H          4.0100  -23.1150   -8.2490 H     454  INH454      0.2220
     41  O6         3.8280  -16.6190  -12.4450 O.3   454  INH454     -0.3070
     42  H          4.0930  -15.6940  -12.3230 H     454  INH454      0.2220
     43  O14       -0.5020  -18.2220  -12.3360 O.3   454  INH454     -0.3880
     44  H22       -1.3950  -18.5020  -12.4980 H     454  INH454      0.2100
     45  N6        -1.4250  -18.9920   -8.9100 N.pl3 454  INH454     -0.2970
     46  C2        -1.0620  -19.5980   -7.7610 C.3   454  INH454      0.1880
     47  N2        -1.5480  -18.9370   -6.6870 N.pl3 454  INH454     -0.3450
     48  C4        -2.2370  -17.8800   -7.1450 C.2   454  INH454      0.1470
     49  H2        -1.4150  -19.1940   -5.7080 H     454  INH454      0.1670
     50  C8        -3.0020  -16.7690   -6.5550 C.2   454  INH454      0.2900
     51  C6        -2.1510  -17.9360   -8.6060 C.2   454  INH454      0.1590
     52  N8        -3.5640  -15.8830   -7.3850 N.am  454  INH454     -0.1540
     53  O4        -3.1280  -16.6370   -5.3200 O.2   454  INH454     -0.2650
     54  C10       -3.4550  -15.9820   -8.7290 C.3   454  INH454      0.6800
     55  H16       -4.0830  -15.1210   -6.9980 H     454  INH454      0.1870
     56  N4        -2.7630  -16.9760   -9.3360 N.pl3 454  INH454     -0.1740
     57  N10       -4.0580  -15.0480   -9.5020 N.3   454  INH454     -0.2340
     58  H4        -2.7040  -17.0000  -10.3540 H     454  INH454      0.1860
     59  H20       -4.5890  -14.2760   -9.1530 H     454  INH454      0.1740
     60  H19       -3.8980  -15.2380  -10.4710 H     454  INH454      0.1740
@<TRIPOS>BOND
     1    44    43    1
     2    41    42    1
     3    41    20    1
     4    43     8    1
     5    18    20    1
     6    18     6    1
     7    20    12    2
     8    20    13    1
     9     8     6    1
    10     8    10    1
    11     4     6    1
    12     4    16    1
    13     4     2    1
    14    60    57    1
    15     1    13    1
    16     1     3    1
    17    58    56    1
    18    10    16    1
    19    10    45    1
    20     2    14    1
    21    57    59    1
    22    57    54    1
    23    56    54    1
    24    56    51    1
    25     3    15    1
    26     3     5    1
    27    45    51    1
    28    45    46    1
    29    54    52    1
    30    14    19    1
    31    51    48    2
    32    15     9    1
    33    40    39    1
    34    17     5    1
    35    17    19    1
    36     5     7    1
    37    39    19    1
    38    46    47    1
    39    19    11    2
    40    22    23    1
    41    22    21    1
    42    52    55    1
    43    52    50   am
    44     9     7    1
    45     9    21    1
    46    48    47    1
    47    48    50    1
    48    25    23    1
    49     7    37    1
    50    23    24    1
    51    21    27    1
    52    47    49    1
    53    37    38    1
    54    50    53    2
    55    24    27    2
    56    24    26    1
    57    27    32    1
    58    32    34    1
    59    32    30    1
    60    26    29    2
    61    26    28   am
    62    30    28    1
    63    30    33    1
    64    28    31    1
    65    36    33    1
    66    33    35    1
