@<TRIPOS>MOLECULE
/tmp/ewbell/vina_2rde_2rde_lig/vina/vina1.pdbqt
 60 66 0 0 0
SMALL
GASTEIGER

@<TRIPOS>ATOM
      1  C11        2.0590  -21.0170   -9.8920 C.3   454  INH454      0.2150
      2  C12        4.8010  -18.4490  -10.0930 C.3   454  INH454      0.2150
      3  C13        0.9980  -20.3170  -10.7140 C.3   454  INH454      0.1800
      4  C14        5.4970  -18.7080   -8.7770 C.3   454  INH454      0.1800
      5  C15        1.1520  -18.8070  -10.7120 C.3   454  INH454      0.1970
      6  C16        4.5700  -19.2790   -7.7140 C.3   454  INH454      0.1970
      7  C17       -0.2600  -18.3830  -10.9550 C.3   454  INH454      0.1990
      8  C18        5.2440  -18.8410   -6.4530 C.3   454  INH454      0.1990
      9  C19       -1.1280  -19.4160  -10.2620 C.3   454  INH454      0.2620
     10  C20        5.9170  -17.5110   -6.7800 C.3   454  INH454      0.2620
     11  O1         1.8580  -16.0460  -10.7980 O.2   454  INH454     -0.6310
     12  O2         2.6240  -20.7200   -6.0660 O.2   454  INH454     -0.6310
     13  O7         1.9200  -20.6400   -8.5270 O.3   454  INH454     -0.2940
     14  O8         3.7590  -17.4830   -9.9180 O.3   454  INH454     -0.2940
     15  O9        -0.2990  -20.5750  -10.1660 O.3   454  INH454     -0.3530
     16  O10        6.0460  -17.5000   -8.2070 O.3   454  INH454     -0.3530
     17  O11        2.1050  -18.3780  -11.6960 O.3   454  INH454     -0.2860
     18  O12        4.4360  -20.7070   -7.8430 O.3   454  INH454     -0.2860
     19  P1         2.8720  -17.0810  -11.1710 P.3   454  INH454      0.3930
     20  P2         2.9460  -21.2020   -7.4580 P.3   454  INH454      0.3930
     21  N5        -1.4540  -18.9630   -8.9120 N.pl3 454  INH454     -0.2970
     22  C1        -1.0720  -19.5480   -7.7720 C.3   454  INH454      0.1880
     23  N1        -1.5370  -18.8710   -6.7040 N.pl3 454  INH454     -0.3450
     24  C3        -2.2330  -17.8310   -7.1690 C.2   454  INH454      0.1470
     25  H1        -1.3840  -19.1090   -5.7230 H     454  INH454      0.1670
     26  C7        -2.9880  -16.7140   -6.5760 C.2   454  INH454      0.2900
     27  C5        -2.1680  -17.9000   -8.6250 C.2   454  INH454      0.1590
     28  N7        -3.5730  -15.8350   -7.3980 N.am  454  INH454     -0.1540
     29  O3        -3.0850  -16.5950   -5.3330 O.2   454  INH454     -0.2650
     30  C9        -3.4850  -15.9450   -8.7400 C.3   454  INH454      0.6800
     31  H15       -4.0920  -15.0740   -7.0080 H     454  INH454      0.1870
     32  N3        -2.8010  -16.9510   -9.3500 N.pl3 454  INH454     -0.1740
     33  N9        -4.0980  -15.0270   -9.5230 N.3   454  INH454     -0.2340
     34  H3        -2.7660  -16.9900  -10.3690 H     454  INH454      0.1860
     35  H18       -4.6270  -14.2470   -9.1900 H     454  INH454      0.1740
     36  H17       -3.9400  -15.2490  -10.4860 H     454  INH454      0.1740
     37  O13       -0.5080  -18.3850  -12.3650 O.3   454  INH454     -0.3880
     38  H21       -0.0930  -17.6280  -12.7610 H     454  INH454      0.2100
     39  O5         3.7490  -16.5940  -12.2810 O.3   454  INH454     -0.3070
     40  H          3.2420  -16.5700  -13.1080 H     454  INH454      0.2220
     41  O6         2.9250  -22.6960   -7.5930 O.3   454  INH454     -0.3070
     42  H          2.2830  -22.9500   -8.2740 H     454  INH454      0.2220
     43  O14        6.2140  -19.8320   -6.0740 O.3   454  INH454     -0.3880
     44  H22        6.8080  -19.4640   -5.4310 H     454  INH454      0.2100
     45  N6         5.0510  -16.4020   -6.3350 N.pl3 454  INH454     -0.2970
     46  C2         4.2010  -15.6870   -7.0990 C.3   454  INH454      0.1880
     47  N2         3.5520  -14.7550   -6.3660 N.pl3 454  INH454     -0.3450
     48  C4         3.9870  -14.8680   -5.1010 C.2   454  INH454      0.1470
     49  H2         2.8600  -14.0890   -6.7100 H     454  INH454      0.1670
     50  C8         3.7170  -14.1990   -3.8160 C.2   454  INH454      0.2900
     51  C6         4.9750  -15.9490   -5.1010 C.2   454  INH454      0.1590
     52  N8         4.3850  -14.6200   -2.7370 N.am  454  INH454     -0.1540
     53  O4         2.8900  -13.2700   -3.7180 O.2   454  INH454     -0.2650
     54  C10        5.2890  -15.6240   -2.7930 C.3   454  INH454      0.6800
     55  H16        4.2090  -14.1780   -1.8570 H     454  INH454      0.1870
     56  N4         5.5810  -16.2830   -3.9390 N.pl3 454  INH454     -0.1740
     57  N10        5.9280  -15.9890   -1.6560 N.3   454  INH454     -0.2340
     58  H4         6.2660  -17.0390   -3.9250 H     454  INH454      0.1860
     59  H20        5.7840  -15.5680   -0.7600 H     454  INH454      0.1740
     60  H19        6.5650  -16.7400   -1.8360 H     454  INH454      0.1740
@<TRIPOS>BOND
     1    40    39    1
     2    38    37    1
     3    37     7    1
     4    39    19    1
     5    17    19    1
     6    17     5    1
     7    19    11    2
     8    19    14    1
     9     7     5    1
    10     7     9    1
    11     3     5    1
    12     3    15    1
    13     3     1    1
    14    36    33    1
    15    34    32    1
    16     9    15    1
    17     9    21    1
    18     2    14    1
    19     2     4    1
    20     1    13    1
    21    33    35    1
    22    33    30    1
    23    32    30    1
    24    32    27    1
    25    21    27    1
    26    21    22    1
    27     4    16    1
    28     4     6    1
    29    30    28    1
    30    27    24    2
    31    13    20    1
    32    42    41    1
    33    16    10    1
    34    18     6    1
    35    18    20    1
    36    22    23    1
    37     6     8    1
    38    41    20    1
    39    20    12    2
    40    28    31    1
    41    28    26   am
    42    24    23    1
    43    24    26    1
    44    46    47    1
    45    46    45    1
    46    10     8    1
    47    10    45    1
    48    49    47    1
    49    23    25    1
    50    26    29    2
    51     8    43    1
    52    47    48    1
    53    45    51    1
    54    43    44    1
    55    51    48    2
    56    51    56    1
    57    48    50    1
    58    56    58    1
    59    56    54    1
    60    50    53    2
    61    50    52   am
    62    54    52    1
    63    54    57    1
    64    52    55    1
    65    60    57    1
    66    57    59    1
