@<TRIPOS>MOLECULE
/tmp/ewbell/vina_2rde_2rde_lig/vina/vina5.pdbqt
 60 66 0 0 0
SMALL
GASTEIGER

@<TRIPOS>ATOM
      1  C11       -2.6610  -11.3410    5.0750 C.3   454  INH454      0.2150
      2  C12       -4.9150   -8.8170    3.4330 C.3   454  INH454      0.2150
      3  C13       -1.4300  -10.4840    5.2790 C.3   454  INH454      0.1800
      4  C14       -5.7610   -9.7370    2.5830 C.3   454  INH454      0.1800
      5  C15       -1.3340   -9.3440    4.2810 C.3   454  INH454      0.1970
      6  C16       -5.0380  -11.0180    2.1920 C.3   454  INH454      0.1970
      7  C17        0.1440   -9.1300    4.2450 C.3   454  INH454      0.1990
      8  C18       -5.7420  -11.3930    0.9270 C.3   454  INH454      0.1990
      9  C19        0.7660  -10.5010    4.4340 C.3   454  INH454      0.2620
     10  C20       -6.1560  -10.0770    0.2750 C.3   454  INH454      0.2620
     11  O1        -1.5670   -7.1230    2.5080 O.2   454  INH454     -0.6310
     12  O2        -3.5110  -13.5080    1.9730 O.2   454  INH454     -0.6310
     13  O7        -2.5840  -11.9760    3.8040 O.3   454  INH454     -0.2940
     14  O8        -3.7500   -8.4090    2.7100 O.3   454  INH454     -0.2940
     15  O9        -0.2470  -11.2670    5.0870 O.3   454  INH454     -0.3530
     16  O10       -6.1520   -9.1180    1.3380 O.3   454  INH454     -0.3530
     17  O11       -2.1120   -8.2140    4.7040 O.3   454  INH454     -0.2860
     18  O12       -5.1290  -12.0120    3.2310 O.3   454  INH454     -0.2860
     19  P1        -2.7000   -7.4590    3.4280 P.3   454  INH454      0.3930
     20  P2        -3.7800  -12.8990    3.3250 P.3   454  INH454      0.3930
     21  N5         1.0390  -11.1050    3.1320 N.pl3 454  INH454     -0.2970
     22  C1         0.6500  -12.3190    2.7300 C.3   454  INH454      0.1880
     23  N1         1.0610  -12.5650    1.4710 N.pl3 454  INH454     -0.3450
     24  C3         1.7290  -11.4850    1.0570 C.2   454  INH454      0.1470
     25  H1         0.8920  -13.4160    0.9340 H     454  INH454      0.1670
     26  C7         2.4260  -11.0820   -0.1770 C.2   454  INH454      0.2900
     27  C5         1.7050  -10.5290    2.1580 C.2   454  INH454      0.1590
     28  N7         2.9980   -9.8720   -0.2170 N.am  454  INH454     -0.1540
     29  O3         2.4860  -11.8550   -1.1600 O.2   454  INH454     -0.2650
     30  C9         2.9490   -9.0250    0.8320 C.3   454  INH454      0.6800
     31  H15        3.4780   -9.5880   -1.0470 H     454  INH454      0.1870
     32  N3         2.3200   -9.3360    1.9980 N.pl3 454  INH454     -0.1740
     33  N9         3.5470   -7.8150    0.7350 N.3   454  INH454     -0.2340
     34  H3         2.3130   -8.6600    2.7620 H     454  INH454      0.1860
     35  H18        4.0370   -7.4760   -0.0670 H     454  INH454      0.1740
     36  H17        3.4230   -7.3110    1.5910 H     454  INH454      0.1740
     37  O13        0.5140   -8.2600    5.3190 O.3   454  INH454     -0.3880
     38  H21        1.1500   -7.6260    5.0080 H     454  INH454      0.2100
     39  O5        -3.3830   -6.2180    3.9100 O.3   454  INH454     -0.3070
     40  H         -3.1610   -6.0680    4.8420 H     454  INH454      0.2220
     41  O6        -3.9930  -13.9170    4.4070 O.3   454  INH454     -0.3070
     42  H         -4.8320  -13.7380    4.8590 H     454  INH454      0.2220
     43  O14       -6.8910  -12.1940    1.2510 O.3   454  INH454     -0.3880
     44  H22       -6.9050  -12.9660    0.6990 H     454  INH454      0.2100
     45  N6        -5.1640   -9.7070   -0.7530 N.pl3 454  INH454     -0.2970
     46  C2        -4.8070  -10.4370   -1.8290 C.3   454  INH454      0.1880
     47  N2        -3.8810   -9.7910   -2.5710 N.pl3 454  INH454     -0.3450
     48  C4        -3.6310   -8.6180   -1.9680 C.2   454  INH454      0.1470
     49  H2        -3.4500  -10.1320   -3.4310 H     454  INH454      0.1670
     50  C8        -2.7640   -7.4540   -2.2160 C.2   454  INH454      0.2900
     51  C6        -4.4770   -8.5830   -0.7730 C.2   454  INH454      0.1590
     52  N8        -2.8050   -6.4420   -1.3420 N.am  454  INH454     -0.1540
     53  O4        -2.0110   -7.3920   -3.2100 O.2   454  INH454     -0.2650
     54  C10       -3.6050   -6.4620   -0.2520 C.3   454  INH454      0.6800
     55  H16       -2.2250   -5.6440   -1.5000 H     454  INH454      0.1870
     56  N4        -4.4290   -7.4980    0.0330 N.pl3 454  INH454     -0.1740
     57  N10       -3.5860   -5.4000    0.5890 N.3   454  INH454     -0.2340
     58  H4        -5.0190   -7.4600    0.8640 H     454  INH454      0.1860
     59  H20       -3.0170   -4.5870    0.4680 H     454  INH454      0.1740
     60  H19       -4.2220   -5.5430    1.3490 H     454  INH454      0.1740
@<TRIPOS>BOND
     1    49    47    1
     2    53    50    2
     3    47    48    1
     4    47    46    1
     5    50    48    1
     6    50    52   am
     7    48    51    2
     8    46    45    1
     9    55    52    1
    10    52    54    1
    11    29    26    2
    12    31    28    1
    13    51    45    1
    14    51    56    1
    15    45    10    1
    16    54    56    1
    17    54    57    1
    18    28    26   am
    19    28    30    1
    20    26    24    1
    21    35    33    1
    22    56    58    1
    23    10     8    1
    24    10    16    1
    25    59    57    1
    26    57    60    1
    27    44    43    1
    28    33    30    1
    29    33    36    1
    30    30    32    1
    31     8    43    1
    32     8     6    1
    33    25    23    1
    34    24    23    1
    35    24    27    2
    36    16     4    1
    37    23    22    1
    38    12    20    2
    39    32    27    1
    40    32    34    1
    41    27    21    1
    42     6     4    1
    43     6    18    1
    44    11    19    2
    45     4     2    1
    46    14    19    1
    47    14     2    1
    48    22    21    1
    49    21     9    1
    50    18    20    1
    51    20    13    1
    52    20    41    1
    53    19    39    1
    54    19    17    1
    55    13     1    1
    56    39    40    1
    57     7     5    1
    58     7     9    1
    59     7    37    1
    60     5    17    1
    61     5     3    1
    62    41    42    1
    63     9    15    1
    64    38    37    1
    65     1     3    1
    66    15     3    1
