@<TRIPOS>MOLECULE
/tmp/ewbell/vina_2rde_2rde_lig/vina/vina3.pdbqt
 60 66 0 0 0
SMALL
GASTEIGER

@<TRIPOS>ATOM
      1  C11        2.7820  -10.8810    4.1470 C.3   454  INH454      0.2150
      2  C12       -0.5700   -9.5700    5.2380 C.3   454  INH454      0.2150
      3  C13        3.0430   -9.9610    2.9740 C.3   454  INH454      0.1800
      4  C14       -1.1640  -10.8300    5.8240 C.3   454  INH454      0.1800
      5  C15        1.7670   -9.4260    2.3490 C.3   454  INH454      0.1970
      6  C16       -0.6060  -12.0990    5.1990 C.3   454  INH454      0.1970
      7  C17        2.2260   -9.1710    0.9510 C.3   454  INH454      0.1990
      8  C18       -1.7220  -13.0680    5.4230 C.3   454  INH454      0.1990
      9  C19        3.2490  -10.2500    0.6480 C.3   454  INH454      0.2620
     10  C20       -3.0060  -12.2440    5.3710 C.3   454  INH454      0.2620
     11  O1        -0.7510   -8.3270    1.5830 O.2   454  INH454     -0.6310
     12  O2         0.9590  -14.3040    4.0710 O.2   454  INH454     -0.6310
     13  O7         2.0890  -12.0370    3.6910 O.3   454  INH454     -0.2940
     14  O8        -0.8700   -9.4870    3.8410 O.3   454  INH454     -0.2940
     15  O9         3.7160  -10.6720    1.9300 O.3   454  INH454     -0.3530
     16  O10       -2.5940  -10.8970    5.6290 O.3   454  INH454     -0.3530
     17  O11        1.2800   -8.2770    3.0600 O.3   454  INH454     -0.2860
     18  O12        0.6390  -12.4860    5.8120 O.3   454  INH454     -0.2860
     19  P1        -0.3140   -8.2520    3.0130 P.3   454  INH454      0.3930
     20  P2         1.6530  -13.1440    4.7380 P.3   454  INH454      0.3930
     21  N5         2.5940  -11.3820   -0.0040 N.pl3 454  INH454     -0.2970
     22  C1         1.7400  -11.3140   -1.0300 C.3   454  INH454      0.1880
     23  N1         1.3250  -12.5420   -1.3960 N.pl3 454  INH454     -0.3450
     24  C3         1.9240  -13.4170   -0.5840 C.2   454  INH454      0.1470
     25  H1         0.6750  -12.7620   -2.1510 H     454  INH454      0.1670
     26  C7         1.9270  -14.8820   -0.4270 C.2   454  INH454      0.2900
     27  C5         2.7600  -12.6420    0.3250 C.2   454  INH454      0.1590
     28  N7         2.6860  -15.4160    0.5380 N.am  454  INH454     -0.1540
     29  O3         1.2320  -15.6080   -1.1730 O.2   454  INH454     -0.2650
     30  C9         3.4400  -14.6530    1.3560 C.3   454  INH454      0.6800
     31  H15        2.6940  -16.4090    0.6590 H     454  INH454      0.1870
     32  N3         3.4840  -13.2960    1.2620 N.pl3 454  INH454     -0.1740
     33  N9         4.1870  -15.2470    2.3160 N.3   454  INH454     -0.2340
     34  H3         4.0690  -12.7650    1.9060 H     454  INH454      0.1860
     35  H18        4.2370  -16.2320    2.4810 H     454  INH454      0.1740
     36  H17        4.6830  -14.5490    2.8340 H     454  INH454      0.1740
     37  O13        2.8330   -7.8760    0.8910 O.3   454  INH454     -0.3880
     38  H21        2.4050   -7.2970    1.5110 H     454  INH454      0.2100
     39  O5        -0.7660   -6.9720    3.6430 O.3   454  INH454     -0.3070
     40  H         -1.1450   -6.3930    2.9630 H     454  INH454      0.2220
     41  O6         2.8940  -13.5380    5.4830 O.3   454  INH454     -0.3070
     42  H          3.6110  -12.9200    5.2670 H     454  INH454      0.2220
     43  O14       -1.5550  -13.6840    6.7110 O.3   454  INH454     -0.3880
     44  H22       -1.1670  -14.5440    6.6030 H     454  INH454      0.2100
     45  N6        -3.5990  -12.3490    4.0240 N.pl3 454  INH454     -0.2970
     46  C2        -3.9860  -13.4800    3.3990 C.3   454  INH454      0.1880
     47  N2        -4.5030  -13.2100    2.1790 N.pl3 454  INH454     -0.3450
     48  C4        -4.4540  -11.8800    2.0090 C.2   454  INH454      0.1470
     49  H2        -4.8650  -13.8920    1.5120 H     454  INH454      0.1670
     50  C8        -4.8360  -10.9240    0.9540 C.2   454  INH454      0.2900
     51  C6        -3.8520  -11.3320    3.2260 C.2   454  INH454      0.1590
     52  N8        -4.6130   -9.6240    1.1750 N.am  454  INH454     -0.1540
     53  O4        -5.3580  -11.2980   -0.1160 O.2   454  INH454     -0.2650
     54  C10       -4.0520   -9.1710    2.3180 C.3   454  INH454      0.6800
     55  H16       -4.8710   -8.9640    0.4690 H     454  INH454      0.1870
     56  N4        -3.6820   -9.9940    3.3280 N.pl3 454  INH454     -0.1740
     57  N10       -3.8540   -7.8390    2.4630 N.3   454  INH454     -0.2340
     58  H4        -3.2700   -9.6000    4.1740 H     454  INH454      0.1860
     59  H20       -4.0930   -7.1490    1.7800 H     454  INH454      0.1740
     60  H19       -3.4350   -7.6410    3.3500 H     454  INH454      0.1740
@<TRIPOS>BOND
     1    25    23    1
     2    23    22    1
     3    23    24    1
     4    29    26    2
     5    22    21    1
     6    24    26    1
     7    24    27    2
     8    26    28   am
     9    53    50    2
    10    21    27    1
    11    21     9    1
    12    27    32    1
    13    55    52    1
    14    28    31    1
    15    28    30    1
    16     9     7    1
    17     9    15    1
    18    37     7    1
    19    37    38    1
    20     7     5    1
    21    50    52   am
    22    50    48    1
    23    52    54    1
    24    32    30    1
    25    32    34    1
    26    30    33    1
    27    49    47    1
    28    11    19    2
    29    59    57    1
    30    15     3    1
    31    48    47    1
    32    48    51    2
    33    47    46    1
    34    33    35    1
    35    33    36    1
    36    54    57    1
    37    54    56    1
    38     5     3    1
    39     5    17    1
    40    57    60    1
    41    40    39    1
    42     3     1    1
    43    19    17    1
    44    19    39    1
    45    19    14    1
    46    51    56    1
    47    51    45    1
    48    56    58    1
    49    46    45    1
    50    13     1    1
    51    13    20    1
    52    14     2    1
    53    45    10    1
    54    12    20    2
    55    20    41    1
    56    20    18    1
    57     6     8    1
    58     6    18    1
    59     6     4    1
    60     2     4    1
    61    42    41    1
    62    10     8    1
    63    10    16    1
    64     8    43    1
    65    16     4    1
    66    44    43    1
