@<TRIPOS>MOLECULE
/tmp/ewbell/vina_2rde_2rde_lig/vina/vina4.pdbqt
 60 66 0 0 0
SMALL
GASTEIGER

@<TRIPOS>ATOM
      1  C11       -0.8710   -9.4040    5.3860 C.3   454  INH454      0.2150
      2  C12        2.5100  -10.6740    4.3340 C.3   454  INH454      0.2150
      3  C13       -1.4280  -10.6630    6.0140 C.3   454  INH454      0.1800
      4  C14        2.7560   -9.7930    3.1310 C.3   454  INH454      0.1800
      5  C15       -0.8080  -11.9280    5.4490 C.3   454  INH454      0.1970
      6  C16        1.4720   -9.3300    2.4580 C.3   454  INH454      0.1970
      7  C17       -1.9120  -12.9070    5.6810 C.3   454  INH454      0.1990
      8  C18        1.9320   -9.0850    1.0560 C.3   454  INH454      0.1990
      9  C19       -3.2020  -12.1260    5.5110 C.3   454  INH454      0.2620
     10  C20        3.0500  -10.0920    0.8020 C.3   454  INH454      0.2620
     11  O1         0.7380  -14.1060    4.4510 O.2   454  INH454     -0.6310
     12  O2        -1.1620   -8.3170    1.6740 O.2   454  INH454     -0.6310
     13  O7        -1.2020   -9.3840    4.0020 O.3   454  INH454     -0.2940
     14  O8         1.8190  -11.8640    3.9410 O.3   454  INH454     -0.2940
     15  O9        -2.8310  -10.7670    5.7470 O.3   454  INH454     -0.3530
     16  O10        3.5080  -10.4750    2.1040 O.3   454  INH454     -0.3530
     17  O11        0.4360  -12.2330    6.0960 O.3   454  INH454     -0.2860
     18  O12        0.9250   -8.1670    3.1080 O.3   454  INH454     -0.2860
     19  P1         1.4280  -12.9240    5.0560 P.3   454  INH454      0.3930
     20  P2        -0.6920   -8.1850    3.0990 P.3   454  INH454      0.3930
     21  N5        -3.6760  -12.2470    4.1350 N.pl3 454  INH454     -0.2970
     22  C1        -3.8200  -13.3850    3.4480 C.3   454  INH454      0.1880
     23  N1        -4.2850  -13.1450    2.2070 N.pl3 454  INH454     -0.3450
     24  C3        -4.4390  -11.8240    2.0930 C.2   454  INH454      0.1470
     25  H1        -4.4810  -13.8430    1.4890 H     454  INH454      0.1670
     26  C7        -4.8970  -10.8990    1.0420 C.2   454  INH454      0.2900
     27  C5        -4.0390  -11.2430    3.3700 C.2   454  INH454      0.1590
     28  N7        -4.9140   -9.5880    1.3120 N.am  454  INH454     -0.1540
     29  O3        -5.2540  -11.3300   -0.0780 O.2   454  INH454     -0.2650
     30  C9        -4.5310   -9.1020    2.5100 C.3   454  INH454      0.6800
     31  H15       -5.2190   -8.9490    0.6050 H     454  INH454      0.1870
     32  N3        -4.1000   -9.9020    3.5230 N.pl3 454  INH454     -0.1740
     33  N9        -4.5680   -7.7660    2.7270 N.3   454  INH454     -0.2340
     34  H3        -3.8200   -9.4830    4.4100 H     454  INH454      0.1860
     35  H18       -4.8640   -7.0820    2.0610 H     454  INH454      0.1740
     36  H17       -4.2530   -7.5690    3.6560 H     454  INH454      0.1740
     37  O13       -1.8080  -13.4170    7.0140 O.3   454  INH454     -0.3880
     38  H21       -2.3260  -12.8780    7.6010 H     454  INH454      0.2100
     39  O5         2.6510  -13.3460    5.8070 O.3   454  INH454     -0.3070
     40  H          2.9670  -14.1950    5.4600 H     454  INH454      0.2220
     41  O6        -1.1530   -6.9230    3.7670 O.3   454  INH454     -0.3070
     42  H         -0.3840   -6.3840    4.0070 H     454  INH454      0.2220
     43  O14        2.4180   -7.7360    0.9540 O.3   454  INH454     -0.3880
     44  H22        3.0890   -7.5900    1.6090 H     454  INH454      0.2100
     45  N6         2.5020  -11.2610    0.0880 N.pl3 454  INH454     -0.2970
     46  C2         1.8430  -11.2500   -1.0890 C.3   454  INH454      0.1880
     47  N2         1.4930  -12.5010   -1.4640 N.pl3 454  INH454     -0.3450
     48  C4         1.9350  -13.3410   -0.5140 C.2   454  INH454      0.1470
     49  H2         0.9870  -12.7590   -2.3110 H     454  INH454      0.1670
     50  C8         1.9080  -14.7950   -0.2790 C.2   454  INH454      0.2900
     51  C6         2.5880  -12.5090    0.4990 C.2   454  INH454      0.1590
     52  N8         2.4810  -15.2620    0.8350 N.am  454  INH454     -0.1540
     53  O4         1.3770  -15.5830   -1.0880 O.2   454  INH454     -0.2650
     54  C10        3.0710  -14.4480    1.7390 C.3   454  INH454      0.6800
     55  H16        2.4740  -16.2470    1.0050 H     454  INH454      0.1870
     56  N4         3.1340  -13.1040    1.5840 N.pl3 454  INH454     -0.1740
     57  N10        3.6240  -14.9970    2.8470 N.3   454  INH454     -0.2340
     58  H4         3.5970  -12.5360    2.2920 H     454  INH454      0.1860
     59  H20        3.6330  -15.9760    3.0550 H     454  INH454      0.1740
     60  H19        4.0250  -14.2880    3.4280 H     454  INH454      0.1740
@<TRIPOS>BOND
     1    49    47    1
     2    47    46    1
     3    47    48    1
     4    46    45    1
     5    53    50    2
     6    48    50    1
     7    48    51    2
     8    50    52   am
     9    29    26    2
    10    45    51    1
    11    45    10    1
    12    51    56    1
    13    31    28    1
    14    10     8    1
    15    10    16    1
    16    52    55    1
    17    52    54    1
    18    43     8    1
    19    43    44    1
    20    26    28   am
    21    26    24    1
    22     8     6    1
    23    28    30    1
    24    25    23    1
    25    56    54    1
    26    56    58    1
    27    12    20    2
    28    54    57    1
    29    35    33    1
    30    24    23    1
    31    24    27    2
    32    16     4    1
    33    23    22    1
    34     6    18    1
    35     6     4    1
    36    30    33    1
    37    30    32    1
    38    33    36    1
    39    57    59    1
    40    57    60    1
    41    20    18    1
    42    20    41    1
    43    20    13    1
    44     4     2    1
    45    27    32    1
    46    27    21    1
    47    22    21    1
    48    32    34    1
    49    41    42    1
    50    14     2    1
    51    14    19    1
    52    13     1    1
    53    21     9    1
    54    11    19    2
    55    19    39    1
    56    19    17    1
    57     1     3    1
    58     5     7    1
    59     5     3    1
    60     5    17    1
    61    40    39    1
    62     9     7    1
    63     9    15    1
    64     7    37    1
    65    15     3    1
    66    37    38    1
