@<TRIPOS>MOLECULE
./ligand/1eby_lig.pdb
 88 93 0 0 0
SMALL
GASTEIGER

@<TRIPOS>ATOM
      1  C1         9.8440   24.2070    2.2410 C.ar  203  INH203     -0.0219
      2  C2         9.2310   25.4050    1.7950 C.ar  203  INH203     -0.0564
      3  C3         7.8250   25.5750    1.9120 C.ar  203  INH203     -0.0614
      4  C4         7.0260   24.5420    2.4800 C.ar  203  INH203     -0.0617
      5  C5         7.6380   23.3390    2.9290 C.ar  203  INH203     -0.0614
      6  C6         9.0430   23.1720    2.8100 C.ar  203  INH203     -0.0564
      7  C7        16.6170   22.1670    8.8460 C.ar  203  INH203     -0.0219
      8  C8        15.8970   21.1820    9.5900 C.ar  203  INH203     -0.0564
      9  C9        16.5680   20.0300   10.0940 C.ar  203  INH203     -0.0614
     10  C10       17.9600   19.8590    9.8540 C.ar  203  INH203     -0.0617
     11  C11       18.6810   20.8390    9.1140 C.ar  203  INH203     -0.0614
     12  C12       18.0100   21.9900    8.6100 C.ar  203  INH203     -0.0564
     13  C13       15.8900   23.4020    8.2880 C.3   203  INH203      0.0738
     14  O1        14.7960   23.1160    7.3670 O.3   203  INH203     -0.3601
     15  C14       15.1800   22.6850    6.0280 C.3   203  INH203      0.1628
     16  C15       14.0630   23.0590    5.0310 C.3   203  INH203      0.1185
     17  C16       13.5940   24.5130    5.1080 C.3   203  INH203      0.1185
     18  C17       12.2210   24.7320    4.3560 C.3   203  INH203      0.1628
     19  C18       11.0340   24.7260    5.3120 C.2   203  INH203      0.2451
     20  O2        10.8180   23.7130    5.9610 O.2   203  INH203     -0.2729
     21  N1        10.2610   25.8030    5.3600 N.am  203  INH203     -0.3038
     22  O3        12.0380   23.6650    3.3570 O.3   203  INH203     -0.3601
     23  C19       11.3620   24.0330    2.1260 C.3   203  INH203      0.0738
     24  O4        14.6400   25.2940    4.4910 O.3   203  INH203     -0.3861
     25  O5        14.5800   22.8360    3.6910 O.3   203  INH203     -0.3861
     26  C20       15.3410   21.1990    5.9620 C.2   203  INH203      0.2451
     27  O6        14.3540   20.5160    6.2110 O.2   203  INH203     -0.2729
     28  N2        16.5050   20.7010    5.5790 N.am  203  INH203     -0.3038
     29  C21       16.8700   19.3000    5.3590 C.3   203  INH203      0.0748
     30  C22       16.7550   18.9200    3.8830 C.ar  203  INH203     -0.0215
     31  C23       17.6770   17.9100    3.5290 C.ar  203  INH203     -0.0398
     32  C24       15.8750   19.4460    2.8930 C.ar  203  INH203     -0.0565
     33  C25       15.9380   18.9450    1.5610 C.ar  203  INH203     -0.0614
     34  C26       16.8750   17.9240    1.2270 C.ar  203  INH203     -0.0615
     35  C27       18.2830   18.7480    5.6730 C.3   203  INH203      0.0816
     36  O7        19.2290   19.7990    5.3760 O.3   203  INH203     -0.3893
     37  C28       17.7580   17.3950    2.2120 C.ar  203  INH203     -0.0582
     38  C29       18.4980   17.5180    4.7450 C.3   203  INH203      0.0008
     39  C30        9.0290   26.0670    6.1350 C.3   203  INH203      0.0748
     40  C31        9.2990   26.7620    7.4770 C.ar  203  INH203     -0.0215
     41  C32        8.1960   27.5630    7.8780 C.ar  203  INH203     -0.0398
     42  C33       10.4560   26.7020    8.3060 C.ar  203  INH203     -0.0565
     43  C34       10.4930   27.4460    9.5260 C.ar  203  INH203     -0.0614
     44  C35        9.3790   28.2450    9.9180 C.ar  203  INH203     -0.0615
     45  C36        7.9050   26.9920    5.5960 C.3   203  INH203      0.0816
     46  O8         8.5420   28.1100    4.9260 O.3   203  INH203     -0.3893
     47  C37        8.2070   28.3130    9.0900 C.ar  203  INH203     -0.0582
     48  C38        7.0940   27.4690    6.8390 C.3   203  INH203      0.0008
     49  H1         9.8370   26.1940    1.3630 H     203  INH203      0.0621
     50  H2         7.3600   26.4920    1.5690 H     203  INH203      0.0618
     51  H3         5.9540   24.6720    2.5700 H     203  INH203      0.0618
     52  H4         7.0320   22.5510    3.3620 H     203  INH203      0.0618
     53  H5         9.5090   22.2550    3.1530 H     203  INH203      0.0621
     54  H6        14.8360   21.3120    9.7720 H     203  INH203      0.0621
     55  H7        16.0190   19.2850   10.6590 H     203  INH203      0.0618
     56  H8        18.4720   18.9830   10.2350 H     203  INH203      0.0618
     57  H9        19.7420   20.7090    8.9340 H     203  INH203      0.0618
     58  H10       18.5610   22.7330    8.0450 H     203  INH203      0.0621
     59  H11       16.6290   24.0210    7.7570 H     203  INH203      0.0610
     60  H12       15.4800   23.9680    9.1370 H     203  INH203      0.0610
     61  H13       16.1230   23.1750    5.7440 H     203  INH203      0.0720
     62  H14       13.1990   22.4040    5.2140 H     203  INH203      0.0651
     63  H15       13.4730   24.8090    6.1600 H     203  INH203      0.0651
     64  H16       12.2540   25.7050    3.8440 H     203  INH203      0.0720
     65  H17       10.5600   26.5590    4.7780 H     203  INH203      0.1495
     66  H18       11.7880   24.9850    1.7760 H     203  INH203      0.0610
     67  H19       11.5590   23.2470    1.3820 H     203  INH203      0.0610
     68  H20       14.7380   25.0320    3.5830 H     203  INH203      0.2100
     69  H21       14.6250   23.6640    3.2270 H     203  INH203      0.2100
     70  H22       17.2310   21.3690    5.4180 H     203  INH203      0.1495
     71  H23       16.1500   18.7150    5.9510 H     203  INH203      0.0574
     72  H24       15.1630   20.2220    3.1520 H     203  INH203      0.0621
     73  H25       15.2730   19.3400    0.8010 H     203  INH203      0.0618
     74  H26       16.9160   17.5460    0.2120 H     203  INH203      0.0618
     75  H27       18.3660   18.4490    6.7280 H     203  INH203      0.0618
     76  H28       20.1100   19.4930    5.5580 H     203  INH203      0.2099
     77  H29       18.4720   16.6190    1.9600 H     203  INH203      0.0620
     78  H30       19.5600   17.3890    4.4890 H     203  INH203      0.0339
     79  H31       18.1170   16.5950    5.2070 H     203  INH203      0.0339
     80  H32        8.5870   25.0760    6.3170 H     203  INH203      0.0574
     81  H33       11.3050   26.0950    8.0130 H     203  INH203      0.0621
     82  H34       11.3730   27.4030   10.1570 H     203  INH203      0.0618
     83  H35        9.4170   28.8040   10.8460 H     203  INH203      0.0618
     84  H36        7.2500   26.4530    4.8950 H     203  INH203      0.0618
     85  H37        7.8760   28.6950    4.5840 H     203  INH203      0.2099
     86  H38        7.3550   28.9180    9.3790 H     203  INH203      0.0620
     87  H39        6.6200   28.4460    6.6620 H     203  INH203      0.0339
     88  H40        6.3270   26.7360    7.1280 H     203  INH203      0.0339
@<TRIPOS>BOND
     1     1    23    1
     2     1     6   ar
     3     1     2   ar
     4     2    49    1
     5     2     3   ar
     6     3    50    1
     7     3     4   ar
     8     4    51    1
     9     4     5   ar
    10     5    52    1
    11     5     6   ar
    12     6    53    1
    13     7    13    1
    14     7    12   ar
    15     7     8   ar
    16     8    54    1
    17     8     9   ar
    18     9    55    1
    19     9    10   ar
    20    10    56    1
    21    10    11   ar
    22    11    57    1
    23    11    12   ar
    24    12    58    1
    25    13    60    1
    26    13    59    1
    27    13    14    1
    28    14    15    1
    29    15    61    1
    30    15    26    1
    31    15    16    1
    32    16    62    1
    33    16    25    1
    34    16    17    1
    35    17    63    1
    36    17    24    1
    37    17    18    1
    38    18    64    1
    39    18    22    1
    40    18    19    1
    41    19    21   am
    42    19    20    2
    43    21    65    1
    44    21    39    1
    45    22    23    1
    46    23    67    1
    47    23    66    1
    48    24    68    1
    49    25    69    1
    50    26    28   am
    51    26    27    2
    52    28    70    1
    53    28    29    1
    54    29    71    1
    55    29    35    1
    56    29    30    1
    57    30    32   ar
    58    30    31   ar
    59    31    38    1
    60    31    37   ar
    61    32    33   ar
    62    32    72    1
    63    33    34   ar
    64    33    73    1
    65    34    37   ar
    66    34    74    1
    67    35    38    1
    68    35    75    1
    69    35    36    1
    70    36    76    1
    71    37    77    1
    72    38    79    1
    73    38    78    1
    74    39    80    1
    75    39    45    1
    76    39    40    1
    77    40    42   ar
    78    40    41   ar
    79    41    48    1
    80    41    47   ar
    81    42    43   ar
    82    42    81    1
    83    43    44   ar
    84    43    82    1
    85    44    47   ar
    86    44    83    1
    87    45    48    1
    88    45    84    1
    89    45    46    1
    90    46    85    1
    91    47    86    1
    92    48    88    1
    93    48    87    1
