@<TRIPOS>MOLECULE
/tmp/ewbell/vina_1eby_1eby_lig/vina/vina2.pdbqt
 54 59 0 0 0
SMALL
GASTEIGER

@<TRIPOS>ATOM
      1  C15        4.6420   27.2470    4.6090 C.3   203  INH203      0.1880
      2  C14        4.6780   27.4280    6.1410 C.3   203  INH203      0.2440
      3  O1         6.0650   27.4470    6.5920 O.3   203  INH203     -0.3690
      4  C13        6.2860   27.8690    7.9700 C.3   203  INH203      0.2070
      5  C7         7.6320   27.4410    8.5790 C.ar  203  INH203     -0.0350
      6  C12        8.0060   26.0680    8.5940 C.ar  203  INH203      0.0090
      7  C11        9.2460   25.6690    9.1710 C.ar  203  INH203      0.0010
      8  C10       10.1140   26.6430    9.7400 C.ar  203  INH203      0.0000
      9  C9         9.7470   28.0180    9.7290 C.ar  203  INH203      0.0010
     10  C8         8.5060   28.4160    9.1510 C.ar  203  INH203      0.0090
     11  C20        3.9930   28.7230    6.4410 C.2   203  INH203      0.2500
     12  N2         2.7290   28.6990    6.8320 N.am  203  INH203     -0.3480
     13  H22        2.2970   29.5910    6.9580 H     203  INH203      0.1630
     14  O6         4.6280   29.7540    6.2460 O.2   203  INH203     -0.2710
     15  C21        1.8820   27.5370    7.1070 C.3   203  INH203      0.1470
     16  C27        1.2300   26.6960    5.9810 C.3   203  INH203      0.1490
     17  C29       -0.0430   26.0440    6.5920 C.3   203  INH203      0.0730
     18  C23       -0.4580   27.0880    7.6120 C.ar  203  INH203     -0.0470
     19  C22        0.6370   27.9320    7.9020 C.ar  203  INH203     -0.0270
     20  C28       -1.7230   27.2610    8.2270 C.ar  203  INH203      0.0080
     21  C24        0.4770   28.9940    8.8390 C.ar  203  INH203      0.0100
     22  C25       -0.7850   29.1890    9.4700 C.ar  203  INH203      0.0010
     23  C26       -1.8760   28.3240    9.1640 C.ar  203  INH203      0.0010
     24  O7         0.8910   27.6040    4.9100 O.3   203  INH203     -0.3930
     25  H28        0.7110   27.1080    4.1190 H     203  INH203      0.2100
     26  O5         3.8850   28.3570    4.0550 O.3   203  INH203     -0.3900
     27  H21        3.7130   28.9950    4.7380 H     203  INH203      0.2100
     28  C16        3.9810   25.9530    4.1300 C.3   203  INH203      0.1880
     29  O4         3.0960   26.3410    3.0570 O.3   203  INH203     -0.3900
     30  H20        2.4600   25.6520    2.9050 H     203  INH203      0.2100
     31  C17        5.0430   24.9000    3.6200 C.3   203  INH203      0.2440
     32  O3         4.3430   23.6850    3.1660 O.3   203  INH203     -0.3690
     33  C19        3.5160   23.0040    4.1460 C.3   203  INH203      0.2070
     34  C1         3.3750   21.4920    3.9440 C.ar  203  INH203     -0.0350
     35  C6         4.0460   20.5850    4.8180 C.ar  203  INH203      0.0090
     36  C5         3.9040   19.1830    4.6390 C.ar  203  INH203      0.0010
     37  C4         3.0910   18.6810    3.5860 C.ar  203  INH203      0.0000
     38  C3         2.4220   19.5860    2.7130 C.ar  203  INH203      0.0010
     39  C2         2.5650   20.9880    2.8950 C.ar  203  INH203      0.0090
     40  C18        5.8880   25.4430    2.4740 C.2   203  INH203      0.2500
     41  N1         7.1990   25.5400    2.6530 N.am  203  INH203     -0.3480
     42  H17        7.7060   25.8750    1.8590 H     203  INH203      0.1630
     43  O2         5.3290   25.7240    1.4240 O.2   203  INH203     -0.2710
     44  C30        8.0330   25.2330    3.8360 C.3   203  INH203      0.1470
     45  C36        8.4850   26.3390    4.8280 C.3   203  INH203      0.1490
     46  C38        9.7420   25.7820    5.5640 C.3   203  INH203      0.0730
     47  C32       10.3810   24.9670    4.4550 C.ar  203  INH203     -0.0470
     48  C31        9.4060   24.6520    3.4710 C.ar  203  INH203     -0.0270
     49  C37       11.7370   24.5410    4.3390 C.ar  203  INH203      0.0080
     50  C33        9.7870   23.8900    2.3290 C.ar  203  INH203      0.0100
     51  C34       11.1400   23.4520    2.1880 C.ar  203  INH203      0.0010
     52  C35       12.1090   23.7720    3.1850 C.ar  203  INH203      0.0010
     53  O8         8.8130   27.5180    4.0500 O.3   203  INH203     -0.3930
     54  H37        8.0120   27.9320    3.7490 H     203  INH203      0.2100
@<TRIPOS>BOND
     1    43    40    2
     2    42    41    1
     3    51    50   ar
     4    51    52   ar
     5    50    48   ar
     6    40    41   am
     7    40    31    1
     8    41    44    1
     9    38    39   ar
    10    38    37   ar
    11    39    34   ar
    12    30    29    1
    13    29    28    1
    14    32    31    1
    15    32    33    1
    16    52    49   ar
    17    48    44    1
    18    48    47   ar
    19    37    36   ar
    20    31    28    1
    21    54    53    1
    22    44    45    1
    23    34    33    1
    24    34    35   ar
    25    53    45    1
    26    26     1    1
    27    26    27    1
    28    25    24    1
    29    28     1    1
    30    49    47   ar
    31    47    46    1
    32     1     2    1
    33    36    35   ar
    34    45    46    1
    35    24    16    1
    36    16    17    1
    37    16    15    1
    38     2    11    1
    39     2     3    1
    40    14    11    2
    41    11    12   am
    42     3     4    1
    43    17    18    1
    44    12    13    1
    45    12    15    1
    46    15    19    1
    47    18    19   ar
    48    18    20   ar
    49    19    21   ar
    50     4     5    1
    51    20    23   ar
    52     5     6   ar
    53     5    10   ar
    54     6     7   ar
    55    21    22   ar
    56    10     9   ar
    57    23    22   ar
    58     7     8   ar
    59     9     8   ar
