@<TRIPOS>MOLECULE
/tmp/ewbell/vina_1eby_1eby_lig/vina/vina3.pdbqt
 54 59 0 0 0
SMALL
GASTEIGER

@<TRIPOS>ATOM
      1  C15       20.3070   15.1670    5.8500 C.3   203  INH203      0.1880
      2  C14       18.8450   15.4920    6.2220 C.3   203  INH203      0.2440
      3  O1        18.4880   14.7820    7.4450 O.3   203  INH203     -0.3690
      4  C13       19.6020   14.3280    8.2700 C.3   203  INH203      0.2070
      5  C7        19.5030   12.8730    8.7610 C.ar  203  INH203     -0.0350
      6  C12       19.6540   12.5740   10.1440 C.ar  203  INH203      0.0090
      7  C11       19.5770   11.2260   10.5980 C.ar  203  INH203      0.0010
      8  C10       19.3540   10.1710    9.6670 C.ar  203  INH203      0.0000
      9  C9        19.2010   10.4630    8.2830 C.ar  203  INH203      0.0010
     10  C8        19.2770   11.8120    7.8300 C.ar  203  INH203      0.0090
     11  C20       18.7650   16.9730    6.4120 C.2   203  INH203      0.2500
     12  N2        18.1540   17.7010    5.4910 N.am  203  INH203     -0.3480
     13  H22       18.1840   18.6910    5.6310 H     203  INH203      0.1630
     14  O6        19.3310   17.4450    7.3920 O.2   203  INH203     -0.2710
     15  C21       17.4400   17.2490    4.2960 C.3   203  INH203      0.1470
     16  C27       18.1670   16.9010    2.9730 C.3   203  INH203      0.1490
     17  C29       17.1370   17.1200    1.8280 C.3   203  INH203      0.0730
     18  C23       16.2900   18.2450    2.3950 C.ar  203  INH203     -0.0470
     19  C22       16.4640   18.3140    3.7950 C.ar  203  INH203     -0.0270
     20  C28       15.4320   19.1340    1.7000 C.ar  203  INH203      0.0080
     21  C24       15.7630   19.3030    4.5430 C.ar  203  INH203      0.0100
     22  C25       14.8950   20.2090    3.8670 C.ar  203  INH203      0.0010
     23  C26       14.7320   20.1200    2.4540 C.ar  203  INH203      0.0010
     24  O7        19.2870   17.8040    2.8490 O.3   203  INH203     -0.3930
     25  H28       19.0330   18.6680    3.1530 H     203  INH203      0.2100
     26  O5        20.7980   16.2520    5.0160 O.3   203  INH203     -0.3900
     27  H21       21.7340   16.1530    4.8870 H     203  INH203      0.2100
     28  C16       20.4960   13.8640    5.0700 C.3   203  INH203      0.1880
     29  O4        20.5480   14.2460    3.6780 O.3   203  INH203     -0.3900
     30  H20       20.6110   13.4680    3.1370 H     203  INH203      0.2100
     31  C17       21.8220   13.1120    5.4880 C.3   203  INH203      0.2440
     32  O3        21.6850   11.6780    5.1790 O.3   203  INH203     -0.3690
     33  C19       22.7870   10.8180    5.5730 C.3   203  INH203      0.2070
     34  C1        22.8260   10.4460    7.0590 C.ar  203  INH203     -0.0350
     35  C6        22.5890    9.1000    7.4690 C.ar  203  INH203      0.0090
     36  C5        22.6390    8.7530    8.8450 C.ar  203  INH203      0.0010
     37  C4        22.9260    9.7490    9.8190 C.ar  203  INH203      0.0000
     38  C3        23.1630   11.0930    9.4090 C.ar  203  INH203      0.0010
     39  C2        23.1120   11.4370    8.0320 C.ar  203  INH203      0.0090
     40  C18       23.0470   13.6600    4.7660 C.2   203  INH203      0.2500
     41  N1        23.9170   14.3780    5.4640 N.am  203  INH203     -0.3480
     42  H17       24.7150   14.6870    4.9460 H     203  INH203      0.1630
     43  O2        23.2000   13.3780    3.5860 O.2   203  INH203     -0.2710
     44  C30       23.9000   14.7950    6.8830 C.3   203  INH203      0.1470
     45  C36       23.6700   16.2730    7.2990 C.3   203  INH203      0.1490
     46  C38       24.2600   16.4230    8.7340 C.3   203  INH203      0.0730
     47  C32       25.4370   15.4690    8.6570 C.ar  203  INH203     -0.0470
     48  C31       25.2310   14.5400    7.6030 C.ar  203  INH203     -0.0270
     49  C37       26.6070   15.4400    9.4730 C.ar  203  INH203      0.0080
     50  C33       26.2190   13.5460    7.3440 C.ar  203  INH203      0.0100
     51  C34       27.4010   13.4970    8.1460 C.ar  203  INH203      0.0010
     52  C35       27.5960   14.4340    9.2040 C.ar  203  INH203      0.0010
     53  O8        24.3800   17.1110    6.3510 O.3   203  INH203     -0.3930
     54  H37       23.8080   17.8090    6.0550 H     203  INH203      0.2100
@<TRIPOS>BOND
     1    20    18   ar
     2    20    23   ar
     3    17    18    1
     4    17    16    1
     5    18    19   ar
     6    23    22   ar
     7    24    16    1
     8    24    25    1
     9    16    15    1
    10    30    29    1
    11    43    40    2
    12    29    28    1
    13    19    15    1
    14    19    21   ar
    15    22    21   ar
    16    15    12    1
    17    40    41   am
    18    40    31    1
    19    27    26    1
    20    42    41    1
    21    26     1    1
    22    28    31    1
    23    28     1    1
    24    32    31    1
    25    32    33    1
    26    41    44    1
    27    12    13    1
    28    12    11   am
    29    33    34    1
    30     1     2    1
    31    54    53    1
    32     2    11    1
    33     2     3    1
    34    53    45    1
    35    11    14    2
    36    44    45    1
    37    44    48    1
    38    34    35   ar
    39    34    39   ar
    40    45    46    1
    41    50    48   ar
    42    50    51   ar
    43     3     4    1
    44    35    36   ar
    45    48    47   ar
    46    10     9   ar
    47    10     5   ar
    48    39    38   ar
    49    51    52   ar
    50     4     5    1
    51     9     8   ar
    52    47    46    1
    53    47    49   ar
    54     5     6   ar
    55    36    37   ar
    56    52    49   ar
    57    38    37   ar
    58     8     7   ar
    59     6     7   ar
