@<TRIPOS>MOLECULE
/tmp/ewbell/vina_1eby_1eby_lig/vina/vina1.pdbqt
 54 59 0 0 0
SMALL
GASTEIGER

@<TRIPOS>ATOM
      1  C15       19.3840   16.1750    9.1020 C.3   203  INH203      0.1880
      2  C14       18.1890   16.9750    9.6620 C.3   203  INH203      0.2440
      3  O1        17.5880   16.2340   10.7650 O.3   203  INH203     -0.3690
      4  C13       16.2500   16.6550   11.1660 C.3   203  INH203      0.2070
      5  C7        15.6420   15.8730   12.3420 C.ar  203  INH203     -0.0350
      6  C12       16.4890   15.2810   13.3220 C.ar  203  INH203      0.0090
      7  C11       15.9280   14.5440   14.4040 C.ar  203  INH203      0.0010
      8  C10       14.5160   14.3920   14.5070 C.ar  203  INH203      0.0000
      9  C9        13.6630   14.9810   13.5320 C.ar  203  INH203      0.0010
     10  C8        14.2250   15.7190   12.4500 C.ar  203  INH203      0.0090
     11  C20       18.7270   18.2930   10.1220 C.2   203  INH203      0.2500
     12  N2        18.5460   19.3560    9.3560 N.am  203  INH203     -0.3480
     13  H22       18.9780   20.1990    9.6760 H     203  INH203      0.1630
     14  O6        19.3670   18.3040   11.1670 O.2   203  INH203     -0.2710
     15  C21       17.7940   19.4620    8.1050 C.3   203  INH203      0.1470
     16  C27       18.4330   19.9760    6.7900 C.3   203  INH203      0.1490
     17  C29       17.2760   20.5650    5.9330 C.3   203  INH203      0.0730
     18  C23       16.3300   21.0710    7.0080 C.ar  203  INH203     -0.0470
     19  C22       16.6270   20.4420    8.2370 C.ar  203  INH203     -0.0270
     20  C28       15.2870   22.0220    6.8830 C.ar  203  INH203      0.0080
     21  C24       15.8630   20.7650    9.3950 C.ar  203  INH203      0.0100
     22  C25       14.8100   21.7200    9.2960 C.ar  203  INH203      0.0010
     23  C26       14.5260   22.3400    8.0440 C.ar  203  INH203      0.0010
     24  O7        19.3900   20.9970    7.1490 O.3   203  INH203     -0.3930
     25  H28       19.4180   21.0860    8.0950 H     203  INH203      0.2100
     26  O5        20.5900   16.7010    9.7190 O.3   203  INH203     -0.3900
     27  H21       21.3330   16.1620    9.4730 H     203  INH203      0.2100
     28  C16       19.5650   16.2680    7.5860 C.3   203  INH203      0.1880
     29  O4        20.9890   16.3520    7.3660 O.3   203  INH203     -0.3900
     30  H20       21.2890   15.5690    6.9190 H     203  INH203      0.2100
     31  C17       18.9630   15.0110    6.8400 C.3   203  INH203      0.2440
     32  O3        18.2400   15.4590    5.6370 O.3   203  INH203     -0.3690
     33  C19       18.4400   16.8400    5.2330 C.3   203  INH203      0.2070
     34  C1        17.5330   17.3260    4.0980 C.ar  203  INH203     -0.0350
     35  C6        16.1620   17.6280    4.3540 C.ar  203  INH203      0.0090
     36  C5        15.3250   18.0920    3.3050 C.ar  203  INH203      0.0010
     37  C4        15.8530   18.2560    1.9950 C.ar  203  INH203      0.0000
     38  C3        17.2220   17.9540    1.7390 C.ar  203  INH203      0.0010
     39  C2        18.0570   17.4910    2.7910 C.ar  203  INH203      0.0090
     40  C18       20.0410   14.0140    6.4300 C.2   203  INH203      0.2500
     41  N1        20.3760   13.0640    7.2910 N.am  203  INH203     -0.3480
     42  H17       21.0660   12.4210    6.9580 H     203  INH203      0.1630
     43  O2        20.5170   14.1050    5.3080 O.2   203  INH203     -0.2710
     44  C30       19.8960   12.7980    8.6650 C.3   203  INH203      0.1470
     45  C36       20.8190   12.9640    9.9020 C.3   203  INH203      0.1490
     46  C38       20.1950   12.0960   11.0370 C.3   203  INH203      0.0730
     47  C32       19.6280   10.9430   10.2310 C.ar  203  INH203     -0.0470
     48  C31       19.4560   11.3440    8.8790 C.ar  203  INH203     -0.0270
     49  C37       19.2940    9.6310   10.6800 C.ar  203  INH203      0.0080
     50  C33       18.9350   10.4110    7.9360 C.ar  203  INH203      0.0100
     51  C34       18.5930    9.0900    8.3590 C.ar  203  INH203      0.0010
     52  C35       18.7690    8.7000    9.7200 C.ar  203  INH203      0.0010
     53  O8        22.1360   12.4780    9.5340 O.3   203  INH203     -0.3930
     54  H37       22.7150   13.2160    9.3860 H     203  INH203      0.2100
@<TRIPOS>BOND
     1    38    37   ar
     2    38    39   ar
     3    37    36   ar
     4    39    34   ar
     5    36    35   ar
     6    34    35   ar
     7    34    33    1
     8    33    32    1
     9    43    40    2
    10    32    31    1
    11    17    16    1
    12    17    18    1
    13    40    31    1
    14    40    41   am
    15    16    24    1
    16    16    15    1
    17    31    28    1
    18    20    18   ar
    19    20    23   ar
    20    30    29    1
    21    42    41    1
    22    18    19   ar
    23    24    25    1
    24    41    44    1
    25    29    28    1
    26    28     1    1
    27    50    51   ar
    28    50    48   ar
    29    23    22   ar
    30    15    19    1
    31    15    12    1
    32    19    21   ar
    33    51    52   ar
    34    44    48    1
    35    44    45    1
    36    48    47   ar
    37     1     2    1
    38     1    26    1
    39    22    21   ar
    40    12    13    1
    41    12    11   am
    42    54    53    1
    43    27    26    1
    44    53    45    1
    45     2    11    1
    46     2     3    1
    47    52    49   ar
    48    45    46    1
    49    11    14    2
    50    47    49   ar
    51    47    46    1
    52     3     4    1
    53     4     5    1
    54     5    10   ar
    55     5     6   ar
    56    10     9   ar
    57     6     7   ar
    58     9     8   ar
    59     7     8   ar
