@<TRIPOS>MOLECULE
/tmp/ewbell/vina_1eby_1eby_lig/vina/vina4.pdbqt
 54 59 0 0 0
SMALL
GASTEIGER

@<TRIPOS>ATOM
      1  C15       27.9740   18.5820   -5.1600 C.3   203  INH203      0.1880
      2  C14       27.2170   17.2590   -5.3990 C.3   203  INH203      0.2440
      3  O1        26.2160   17.0800   -4.3530 O.3   203  INH203     -0.3690
      4  C13       25.6870   15.7310   -4.1960 C.3   203  INH203      0.2070
      5  C7        25.5230   15.2560   -2.7420 C.ar  203  INH203     -0.0350
      6  C12       26.1030   16.0010   -1.6770 C.ar  203  INH203      0.0090
      7  C11       25.9640   15.5540   -0.3320 C.ar  203  INH203      0.0010
      8  C10       25.2470   14.3570   -0.0470 C.ar  203  INH203      0.0000
      9  C9        24.6630   13.6080   -1.1070 C.ar  203  INH203      0.0010
     10  C8        24.8020   14.0560   -2.4530 C.ar  203  INH203      0.0090
     11  C20       26.5790   17.3620   -6.7480 C.2   203  INH203      0.2500
     12  N2        27.1750   16.7870   -7.7790 N.am  203  INH203     -0.3480
     13  H22       26.7450   16.9380   -8.6680 H     203  INH203      0.1630
     14  O6        25.5580   18.0350   -6.8370 O.2   203  INH203     -0.2710
     15  C21       28.3810   15.9560   -7.7890 C.3   203  INH203      0.1470
     16  C27       29.6130   16.2860   -8.6700 C.3   203  INH203      0.1490
     17  C29       30.3460   14.9390   -8.9320 C.3   203  INH203      0.0730
     18  C23       29.1880   13.9570   -8.9230 C.ar  203  INH203     -0.0470
     19  C22       28.0760   14.5380   -8.2730 C.ar  203  INH203     -0.0270
     20  C28       29.1430   12.6460   -9.4600 C.ar  203  INH203      0.0080
     21  C24       26.8680   13.7940   -8.1470 C.ar  203  INH203      0.0100
     22  C25       26.7980   12.4740   -8.6790 C.ar  203  INH203      0.0010
     23  C26       27.9330   11.9070   -9.3290 C.ar  203  INH203      0.0010
     24  O7        29.1180   16.8610   -9.8990 O.3   203  INH203     -0.3930
     25  H28       28.9440   16.1670  -10.5260 H     203  INH203      0.2100
     26  O5        27.9850   19.3130   -6.4160 O.3   203  INH203     -0.3900
     27  H21       27.1380   19.7200   -6.5530 H     203  INH203      0.2100
     28  C16       29.4270   18.4190   -4.7090 C.3   203  INH203      0.1880
     29  O4        30.0780   19.6670   -5.0300 O.3   203  INH203     -0.3900
     30  H20       29.6230   20.0870   -5.7490 H     203  INH203      0.2100
     31  C17       29.5360   18.1180   -3.1620 C.3   203  INH203      0.2440
     32  O3        30.3640   16.9160   -2.9570 O.3   203  INH203     -0.3690
     33  C19       30.3220   15.9090   -4.0020 C.3   203  INH203      0.2070
     34  C1        29.4860   14.6670   -3.6780 C.ar  203  INH203     -0.0350
     35  C6        29.2890   14.2680   -2.3220 C.ar  203  INH203      0.0090
     36  C5        28.5020   13.1240   -2.0210 C.ar  203  INH203      0.0010
     37  C4        27.9090   12.3730   -3.0730 C.ar  203  INH203      0.0000
     38  C3        28.1060   12.7720   -4.4270 C.ar  203  INH203      0.0010
     39  C2        28.8930   13.9170   -4.7250 C.ar  203  INH203      0.0090
     40  C18       30.1500   19.2810   -2.3910 C.2   203  INH203      0.2500
     41  N1        29.4140   19.8760   -1.4630 N.am  203  INH203     -0.3480
     42  H17       29.8770   20.6120   -0.9690 H     203  INH203      0.1630
     43  O2        31.3100   19.5870   -2.6290 O.2   203  INH203     -0.2710
     44  C30       28.0190   19.6280   -1.0370 C.3   203  INH203      0.1470
     45  C36       27.0740   20.7850   -0.6130 C.3   203  INH203      0.1490
     46  C38       25.9590   20.1420    0.2670 C.3   203  INH203      0.0730
     47  C32       26.7450   19.0480    0.9650 C.ar  203  INH203     -0.0470
     48  C31       27.9190   18.7540    0.2200 C.ar  203  INH203     -0.0270
     49  C37       26.4300   18.3700    2.1790 C.ar  203  INH203      0.0080
     50  C33       28.8140   17.7530    0.6960 C.ar  203  INH203      0.0100
     51  C34       28.5220   17.0590    1.9110 C.ar  203  INH203      0.0010
     52  C35       27.3390   17.3620    2.6480 C.ar  203  INH203      0.0010
     53  O8        27.8600   21.7360    0.1490 O.3   203  INH203     -0.3930
     54  H37       28.2130   22.3960   -0.4360 H     203  INH203      0.2100
@<TRIPOS>BOND
     1    25    24    1
     2    24    16    1
     3    20    23   ar
     4    20    18   ar
     5    23    22   ar
     6    17    18    1
     7    17    16    1
     8    18    19   ar
     9    22    21   ar
    10    16    15    1
    11    13    12    1
    12    19    21   ar
    13    19    15    1
    14    15    12    1
    15    12    11   am
    16    14    11    2
    17    11     2    1
    18    27    26    1
    19    26     1    1
    20    30    29    1
    21     2     1    1
    22     2     3    1
    23     1    28    1
    24    29    28    1
    25    39    38   ar
    26    39    34   ar
    27    28    31    1
    28    38    37   ar
    29     3     4    1
    30     4     5    1
    31    33    34    1
    32    33    32    1
    33    34    35   ar
    34    31    32    1
    35    31    40    1
    36    37    36   ar
    37     5    10   ar
    38     5     6   ar
    39    43    40    2
    40    10     9   ar
    41    40    41   am
    42    35    36   ar
    43     6     7   ar
    44    41    44    1
    45    41    42    1
    46     9     8   ar
    47    44    45    1
    48    44    48    1
    49    45    53    1
    50    45    46    1
    51    54    53    1
    52     7     8   ar
    53    48    50   ar
    54    48    47   ar
    55    46    47    1
    56    50    51   ar
    57    47    49   ar
    58    51    52   ar
    59    49    52   ar
