@<TRIPOS>MOLECULE
/tmp/ewbell/vina_1eby_1eby_lig/vina/vina5.pdbqt
 54 59 0 0 0
SMALL
GASTEIGER

@<TRIPOS>ATOM
      1  C15       21.4480   14.7770    4.7030 C.3   203  INH203      0.1880
      2  C14       22.9000   14.2600    4.7800 C.3   203  INH203      0.2440
      3  O1        22.9090   12.8140    4.5840 O.3   203  INH203     -0.3690
      4  C13       22.8770   12.0040    5.7960 C.3   203  INH203      0.2070
      5  C7        23.9520   12.3460    6.8420 C.ar  203  INH203     -0.0350
      6  C12       23.7950   13.4840    7.6820 C.ar  203  INH203      0.0090
      7  C11       24.7970   13.8100    8.6410 C.ar  203  INH203      0.0010
      8  C10       25.9620   13.0000    8.7600 C.ar  203  INH203      0.0000
      9  C9        26.1250   11.8600    7.9240 C.ar  203  INH203      0.0010
     10  C8        25.1220   11.5340    6.9650 C.ar  203  INH203      0.0090
     11  C20       23.6660   14.9570    3.7010 C.2   203  INH203      0.2500
     12  N2        24.5380   15.8920    4.0410 N.am  203  INH203     -0.3480
     13  H22       24.9760   16.3730    3.2830 H     203  INH203      0.1630
     14  O6        23.3960   14.6640    2.5410 O.2   203  INH203     -0.2710
     15  C21       24.9460   16.3140    5.3820 C.3   203  INH203      0.1470
     16  C27       25.2180   17.7960    5.7430 C.3   203  INH203      0.1490
     17  C29       26.2150   17.7880    6.9370 C.3   203  INH203      0.0730
     18  C23       27.0090   16.5240    6.6590 C.ar  203  INH203     -0.0470
     19  C22       26.2850   15.6910    5.7780 C.ar  203  INH203     -0.0270
     20  C28       28.2830   16.1580    7.1620 C.ar  203  INH203      0.0080
     21  C24       26.8410   14.4430    5.3750 C.ar  203  INH203      0.0100
     22  C25       28.1210   14.0530    5.8660 C.ar  203  INH203      0.0010
     23  C26       28.8330   14.9090    6.7560 C.ar  203  INH203      0.0010
     24  O7        25.8010   18.4200    4.5780 O.3   203  INH203     -0.3930
     25  H28       26.2270   19.2310    4.8330 H     203  INH203      0.2100
     26  O5        21.4710   16.0410    3.9870 O.3   203  INH203     -0.3900
     27  H21       21.8640   15.9130    3.1310 H     203  INH203      0.2100
     28  C16       20.7840   15.0270    6.0580 C.3   203  INH203      0.1880
     29  O4        21.4590   16.1730    6.6190 O.3   203  INH203     -0.3900
     30  H20       21.0260   16.4360    7.4220 H     203  INH203      0.2100
     31  C17       19.2360   15.3110    5.9140 C.3   203  INH203      0.2440
     32  O3        18.4860   14.3450    6.7350 O.3   203  INH203     -0.3690
     33  C19       19.2680   13.3620    7.4650 C.3   203  INH203      0.2070
     34  C1        19.2550   13.5180    8.9880 C.ar  203  INH203     -0.0350
     35  C6        20.0170   12.6320    9.8070 C.ar  203  INH203      0.0090
     36  C5        20.0160   12.7850   11.2190 C.ar  203  INH203      0.0010
     37  C4        19.2520   13.8240   11.8200 C.ar  203  INH203      0.0000
     38  C3        18.4910   14.7080   11.0030 C.ar  203  INH203      0.0010
     39  C2        18.4950   14.5530    9.5900 C.ar  203  INH203      0.0090
     40  C18       18.8670   16.7250    6.3520 C.2   203  INH203      0.2500
     41  N1        18.0490   17.4260    5.5790 N.am  203  INH203     -0.3480
     42  H17       17.8190   18.3340    5.9290 H     203  INH203      0.1630
     43  O2        19.3050   17.1350    7.4170 O.2   203  INH203     -0.2710
     44  C30       17.4200   17.0840    4.2850 C.3   203  INH203      0.1470
     45  C36       18.2610   16.8720    2.9970 C.3   203  INH203      0.1490
     46  C38       17.2900   17.0910    1.7960 C.3   203  INH203      0.0730
     47  C32       16.3860   18.1730    2.3570 C.ar  203  INH203     -0.0470
     48  C31       16.4590   18.1670    3.7760 C.ar  203  INH203     -0.0270
     49  C37       15.5610   19.0930    1.6460 C.ar  203  INH203      0.0080
     50  C33       15.6890   19.1090    4.5180 C.ar  203  INH203      0.0100
     51  C34       14.8560   20.0430    3.8290 C.ar  203  INH203      0.0010
     52  C35       14.7890   20.0370    2.4040 C.ar  203  INH203      0.0010
     53  O8        19.3230   17.8600    2.9990 O.3   203  INH203     -0.3930
     54  H37       19.6310   17.9950    2.1100 H     203  INH203      0.2100
@<TRIPOS>BOND
     1    49    47   ar
     2    49    52   ar
     3    46    47    1
     4    46    45    1
     5    54    53    1
     6    47    48   ar
     7    52    51   ar
     8    14    11    2
     9    45    53    1
    10    45    44    1
    11    27    26    1
    12    13    12    1
    13    11    12   am
    14    11     2    1
    15    48    44    1
    16    48    50   ar
    17    51    50   ar
    18    26     1    1
    19    12    15    1
    20    44    41    1
    21    24    25    1
    22    24    16    1
    23     3     2    1
    24     3     4    1
    25     1     2    1
    26     1    28    1
    27    21    19   ar
    28    21    22   ar
    29    15    16    1
    30    15    19    1
    31    41    42    1
    32    41    40   am
    33    16    17    1
    34    19    18   ar
    35     4     5    1
    36    22    23   ar
    37    31    28    1
    38    31    40    1
    39    31    32    1
    40    28    29    1
    41    40    43    2
    42    29    30    1
    43    18    17    1
    44    18    20   ar
    45    32    33    1
    46    23    20   ar
    47     5    10   ar
    48     5     6   ar
    49    10     9   ar
    50    33    34    1
    51     6     7   ar
    52     9     8   ar
    53     7     8   ar
    54    34    39   ar
    55    34    35   ar
    56    39    38   ar
    57    35    36   ar
    58    38    37   ar
    59    36    37   ar
