@<TRIPOS>MOLECULE
./ligand/3ene_lig.pdb
 34 37 0 0 0
SMALL
GASTEIGER

@<TRIPOS>ATOM
      1  C1        47.1300   11.2400   30.4140 C.3   860  INH860      0.1843
      2  N1        46.2440   10.2420   30.3560 N.3   860  INH860     -0.2997
      3  C2        46.8260   12.4910   30.9730 C.ar  860  INH860      0.0670
      4  N2        48.3650   11.0160   29.9180 N.2   860  INH860     -0.2435
      5  C3        49.3050   11.9760   29.9680 C.2   860  INH860      0.1048
      6  N3        49.0430   13.1920   30.4670 N.pl3 860  INH860     -0.1843
      7  C4        47.8200   13.4610   30.9980 C.ar  860  INH860      0.1491
      8  N4        47.2890   14.5400   31.5910 N.ar  860  INH860     -0.2510
      9  C5        47.8170   15.9080   31.8910 C.3   860  INH860      0.0323
     10  N5        45.9410   14.3720   31.9340 N.ar  860  INH860     -0.1693
     11  C6        45.6140   13.0980   31.6190 C.ar  860  INH860      0.1016
     12  C7        44.3740   12.4690   31.7400 C.ar  860  INH860      0.0031
     13  C8        43.4740   12.4950   32.8220 C.ar  860  INH860     -0.0448
     14  C9        44.0380   11.7740   30.5890 C.ar  860  INH860     -0.0519
     15  C10       42.8560   11.0730   30.4770 C.ar  860  INH860     -0.0534
     16  C11       41.9600   11.0740   31.5110 C.ar  860  INH860     -0.0178
     17  C12       42.2580   11.7730   32.6900 C.ar  860  INH860     -0.0173
     18  C13       40.7880   10.3530   31.3230 C.ar  860  INH860     -0.0540
     19  C14       39.8540   10.3320   32.3540 C.ar  860  INH860     -0.0612
     20  C15       40.1170   11.0120   33.5400 C.ar  860  INH860     -0.0612
     21  C16       41.3070   11.7370   33.6990 C.ar  860  INH860     -0.0540
     22  H1        46.5110    9.3400   29.9370 H     860  INH860      0.1208
     23  H2        45.2940   10.3750   30.7310 H     860  INH860      0.1208
     24  H3        50.3000   11.7610   29.5950 H     860  INH860      0.1015
     25  H4        47.0400   16.4980   32.3980 H     860  INH860      0.0473
     26  H5        48.1000   16.4060   30.9520 H     860  INH860      0.0473
     27  H6        48.6990   15.8260   32.5430 H     860  INH860      0.0473
     28  H7        43.7010   13.0480   33.7260 H     860  INH860      0.0630
     29  H8        44.7260   11.7820   29.7510 H     860  INH860      0.0624
     30  H9        42.6370   10.5210   29.5700 H     860  INH860      0.0624
     31  H10       40.6060    9.8200   30.3970 H     860  INH860      0.0624
     32  H11       38.9240    9.7880   32.2340 H     860  INH860      0.0618
     33  H12       39.3950   10.9810   34.3480 H     860  INH860      0.0618
     34  H13       41.4860   12.2760   34.6220 H     860  INH860      0.0624
@<TRIPOS>BOND
     1    30    15    1
     2    24     5    1
     3    29    14    1
     4     4     5    2
     5     4     1    1
     6    22     2    1
     7     5     6    1
     8     2     1    1
     9     2    23    1
    10    31    18    1
    11     1     3    1
    12     6     7    1
    13    15    14   ar
    14    15    16   ar
    15    14    12   ar
    16    26     9    1
    17     3     7   ar
    18     3    11   ar
    19     7     8   ar
    20    18    16   ar
    21    18    19   ar
    22    16    17   ar
    23     8     9    1
    24     8    10   ar
    25    11    12    1
    26    11    10   ar
    27    12    13   ar
    28     9    25    1
    29     9    27    1
    30    32    19    1
    31    19    20   ar
    32    17    13   ar
    33    17    21   ar
    34    13    28    1
    35    20    21   ar
    36    20    33    1
    37    21    34    1
