@<TRIPOS>MOLECULE
/tmp/ewbell/vina_3ene_3ene_lig/vina/vina2.pdbqt
 26 29 0 0 0
SMALL
GASTEIGER

@<TRIPOS>ATOM
      1  C1        45.7540   15.3770   32.3970 C.2   860  INH860      0.2470
      2  C2        46.3030   14.2250   31.8120 C.2   860  INH860      0.0920
      3  N2        46.5280   16.4690   32.5660 N.pl3 860  INH860     -0.3640
      4  H2        46.1370   17.3040   33.0000 H     860  INH860      0.1620
      5  C3        47.8130   16.4640   32.1680 C.3   860  INH860      0.1790
      6  N3        48.3790   15.3730   31.6330 N.3   860  INH860     -0.3400
      7  C4        47.6350   14.2540   31.4220 C.3   860  INH860      0.1130
      8  N4        47.9040   13.0560   30.8830 N.3   860  INH860     -0.2840
      9  C5        49.1460   12.4450   30.3120 C.3   860  INH860      0.1790
     10  N5        46.8170   12.1740   30.9310 N.3   860  INH860     -0.3000
     11  H5        46.8100   11.1990   30.6310 H     860  INH860      0.1870
     12  C6        45.7770   12.8650   31.4520 C.3   860  INH860      0.0520
     13  C7        44.4890   12.4060   31.7320 C.ar  860  INH860     -0.0100
     14  C8        43.6410   11.6180   30.9330 C.ar  860  INH860      0.0250
     15  C9        44.0730   12.7900   32.9970 C.ar  860  INH860      0.0140
     16  C10       42.8310   12.4520   33.4930 C.ar  860  INH860      0.0130
     17  C11       41.9800   11.6890   32.7410 C.ar  860  INH860     -0.0260
     18  C12       42.3670   11.2720   31.4590 C.ar  860  INH860     -0.0250
     19  C13       40.7510   11.3810   33.3080 C.ar  860  INH860      0.0120
     20  C14       39.8600   10.6070   32.5710 C.ar  860  INH860      0.0010
     21  C15       40.2090   10.1770   31.2940 C.ar  860  INH860      0.0010
     22  C16       41.4600   10.4990   30.7490 C.ar  860  INH860      0.0120
     23  H         49.3340   15.3820   31.3930 H     860  INH860      0.1680
     24  N1        44.4800   15.4470   32.7920 N.pl3 860  INH860     -0.4090
     25  H1        43.9390   14.5840   32.9430 H     860  INH860      0.1520
     26  H2        44.0400   16.3660   32.9480 H     860  INH860      0.1520
@<TRIPOS>BOND
     1     9     8    1
     2    11    10    1
     3    22    21   ar
     4    22    18   ar
     5     8    10    1
     6     8     7    1
     7    10    12    1
     8    14    18   ar
     9    14    13   ar
    10    21    20   ar
    11    23     6    1
    12     7     6    1
    13     7     2    1
    14    12    13    1
    15    12     2    1
    16    18    17   ar
    17     6     5    1
    18    13    15   ar
    19     2     1    2
    20     5     3    1
    21     1     3    1
    22     1    24    1
    23     3     4    1
    24    20    19   ar
    25    17    19   ar
    26    17    16   ar
    27    24    25    1
    28    24    26    1
    29    15    16   ar
