@<TRIPOS>MOLECULE
/tmp/ewbell/vina_3ene_3ene_lig/vina/vina3.pdbqt
 26 29 0 0 0
SMALL
GASTEIGER

@<TRIPOS>ATOM
      1  C1        43.3950   16.5170   33.7250 C.2   860  INH860      0.2470
      2  C2        44.4470   15.6790   33.3260 C.2   860  INH860      0.0920
      3  N2        43.6640   17.7810   34.1160 N.pl3 860  INH860     -0.3640
      4  H2        42.9030   18.3900   34.4160 H     860  INH860      0.1620
      5  C3        44.9260   18.2420   34.1140 C.3   860  INH860      0.1790
      6  N3        45.9600   17.4620   33.7680 N.3   860  INH860     -0.3400
      7  C4        45.7400   16.1880   33.3460 C.3   860  INH860      0.1130
      8  N4        46.5450   15.2090   32.9090 N.3   860  INH860     -0.2840
      9  C5        48.0270   15.1050   32.7290 C.3   860  INH860      0.1790
     10  N5        45.8620   14.0160   32.6340 N.3   860  INH860     -0.3000
     11  H5        46.2770   13.1310   32.3440 H     860  INH860      0.1870
     12  C6        44.5470   14.2660   32.8270 C.3   860  INH860      0.0520
     13  C7        43.4740   13.3810   32.7150 C.ar  860  INH860     -0.0100
     14  C8        43.2070   12.4430   31.7000 C.ar  860  INH860      0.0250
     15  C9        42.6180   13.4730   33.8010 C.ar  860  INH860      0.0140
     16  C10       41.4860   12.6940   33.9090 C.ar  860  INH860      0.0130
     17  C11       41.1950   11.7740   32.9380 C.ar  860  INH860     -0.0260
     18  C12       42.0410   11.6430   31.8270 C.ar  860  INH860     -0.0250
     19  C13       40.0430   11.0190   33.1180 C.ar  860  INH860      0.0120
     20  C14       39.7160   10.0740   32.1510 C.ar  860  INH860      0.0010
     21  C15       40.5300    9.9180   31.0330 C.ar  860  INH860      0.0010
     22  C16       41.6910   10.6910   30.8810 C.ar  860  INH860      0.0120
     23  H         46.8790   17.8110   33.8200 H     860  INH860      0.1680
     24  N1        42.1190   16.1210   33.7280 N.pl3 860  INH860     -0.4090
     25  H1        41.8820   15.1510   33.9770 H     860  INH860      0.1520
     26  H2        41.3730   16.7870   33.4820 H     860  INH860      0.1520
@<TRIPOS>BOND
     1    22    21   ar
     2    22    18   ar
     3    21    20   ar
     4    14    18   ar
     5    14    13   ar
     6    18    17   ar
     7    20    19   ar
     8    11    10    1
     9    10    12    1
    10    10     8    1
    11    13    12    1
    12    13    15   ar
    13     9     8    1
    14    12     2    1
    15     8     7    1
    16    17    19   ar
    17    17    16   ar
    18     2     7    1
    19     2     1    2
    20     7     6    1
    21    26    24    1
    22     1    24    1
    23     1     3    1
    24    24    25    1
    25     6    23    1
    26     6     5    1
    27    15    16   ar
    28     5     3    1
    29     3     4    1
