@<TRIPOS>MOLECULE
/tmp/ewbell/vina_3ene_3ene_lig/vina/vina4.pdbqt
 26 29 0 0 0
SMALL
GASTEIGER

@<TRIPOS>ATOM
      1  C1        44.9230   17.0540   33.5990 C.2   860  INH860      0.2470
      2  C2        46.1780   16.4350   33.4920 C.2   860  INH860      0.0920
      3  N2        44.8240   18.2550   34.2080 N.pl3 860  INH860     -0.3640
      4  H2        43.9130   18.7040   34.2970 H     860  INH860      0.1620
      5  C3        45.9180   18.8630   34.6990 C.3   860  INH860      0.1790
      6  N3        47.1280   18.2890   34.6410 N.3   860  INH860     -0.3400
      7  C4        47.2830   17.0890   34.0190 C.3   860  INH860      0.1130
      8  N4        48.3450   16.3080   33.7730 N.3   860  INH860     -0.2840
      9  C5        49.8000   16.4230   34.1070 C.3   860  INH860      0.1790
     10  N5        48.0090   15.1060   33.1370 N.3   860  INH860     -0.3000
     11  H5        48.6440   14.3430   32.9050 H     860  INH860      0.1870
     12  C6        46.6800   15.1530   32.8920 C.3   860  INH860      0.0520
     13  C7        45.8740   14.1740   32.3090 C.ar  860  INH860     -0.0100
     14  C8        46.1190   13.3990   31.1590 C.ar  860  INH860      0.0250
     15  C9        44.7110   13.9700   33.0340 C.ar  860  INH860      0.0140
     16  C10       43.7600   13.0490   32.6480 C.ar  860  INH860      0.0130
     17  C11       43.9650   12.2810   31.5340 C.ar  860  INH860     -0.0260
     18  C12       45.1330   12.4510   30.7770 C.ar  860  INH860     -0.0250
     19  C13       42.9680   11.3700   31.2120 C.ar  860  INH860      0.0120
     20  C14       43.1430   10.5730   30.0850 C.ar  860  INH860      0.0010
     21  C15       44.2890   10.7150   29.3080 C.ar  860  INH860      0.0010
     22  C16       45.2820   11.6400   29.6610 C.ar  860  INH860      0.0120
     23  H         47.9040   18.7350   35.0490 H     860  INH860      0.1680
     24  N1        43.8050   16.5080   33.1120 N.pl3 860  INH860     -0.4090
     25  H1        43.8020   16.0960   32.1690 H     860  INH860      0.1520
     26  H2        42.9470   16.4990   33.6810 H     860  INH860      0.1520
@<TRIPOS>BOND
     1    21    22   ar
     2    21    20   ar
     3    22    18   ar
     4    20    19   ar
     5    18    14   ar
     6    18    17   ar
     7    14    13   ar
     8    19    17   ar
     9    17    16   ar
    10    25    24    1
    11    13    12    1
    12    13    15   ar
    13    16    15   ar
    14    12    10    1
    15    12     2    1
    16    11    10    1
    17    24     1    1
    18    24    26    1
    19    10     8    1
    20     2     1    2
    21     2     7    1
    22     1     3    1
    23     8     7    1
    24     8     9    1
    25     7     6    1
    26     3     4    1
    27     3     5    1
    28     6     5    1
    29     6    23    1
