@<TRIPOS>MOLECULE
/tmp/ewbell/vina_3ene_3ene_lig/vina/vina1.pdbqt
 26 29 0 0 0
SMALL
GASTEIGER

@<TRIPOS>ATOM
      1  C1        47.0190   11.3380   30.5990 C.2   860  INH860      0.2470
      2  C2        46.6020   12.5820   31.0990 C.2   860  INH860      0.0920
      3  N2        48.3010   11.1760   30.2080 N.pl3 860  INH860     -0.3640
      4  H2        48.6060   10.2770   29.8350 H     860  INH860      0.1620
      5  C3        49.1780   12.1900   30.3070 C.3   860  INH860      0.1790
      6  N3        48.8090   13.3990   30.7510 N.3   860  INH860     -0.3400
      7  C4        47.5340   13.6080   31.1760 C.3   860  INH860      0.1130
      8  N4        46.8980   14.6670   31.6970 N.3   860  INH860     -0.2840
      9  C5        47.3220   16.0700   32.0010 C.3   860  INH860      0.1790
     10  N5        45.5380   14.4290   31.9370 N.3   860  INH860     -0.3000
     11  H5        44.8530   15.1040   32.2760 H     860  INH860      0.1870
     12  C6        45.3090   13.1310   31.6310 C.3   860  INH860      0.0520
     13  C7        44.1010   12.4340   31.6700 C.ar  860  INH860     -0.0100
     14  C8        43.1170   12.4320   32.6770 C.ar  860  INH860      0.0250
     15  C9        43.8980   11.6960   30.5150 C.ar  860  INH860      0.0140
     16  C10       42.7700   10.9250   30.3290 C.ar  860  INH860      0.0130
     17  C11       41.7950   10.8970   31.2890 C.ar  860  INH860     -0.0260
     18  C12       41.9580   11.6380   32.4690 C.ar  860  INH860     -0.0250
     19  C13       40.6850   10.1050   31.0280 C.ar  860  INH860      0.0120
     20  C14       39.6730   10.0520   31.9830 C.ar  860  INH860      0.0010
     21  C15       39.8020   10.7730   33.1670 C.ar  860  INH860      0.0010
     22  C16       40.9330   11.5690   33.4000 C.ar  860  INH860      0.0120
     23  H         49.4610   14.1360   30.7690 H     860  INH860      0.1680
     24  N1        46.1980   10.2900   30.4980 N.pl3 860  INH860     -0.4090
     25  H1        45.7830   10.0460   29.5880 H     860  INH860      0.1520
     26  H2        45.9810    9.7240   31.3310 H     860  INH860      0.1520
@<TRIPOS>BOND
     1    25    24    1
     2     4     3    1
     3     3     5    1
     4     3     1    1
     5     5     6    1
     6    16    15   ar
     7    16    17   ar
     8    24     1    1
     9    24    26    1
    10    15    13   ar
    11     1     2    2
    12     6    23    1
    13     6     7    1
    14    19    17   ar
    15    19    20   ar
    16     2     7    1
    17     2    12    1
    18     7     8    1
    19    17    18   ar
    20    12    13    1
    21    12    10    1
    22    13    14   ar
    23     8    10    1
    24     8     9    1
    25    10    11    1
    26    20    21   ar
    27    18    14   ar
    28    18    22   ar
    29    21    22   ar
