@<TRIPOS>MOLECULE
/tmp/ewbell/vina_3ene_3ene_lig/vina/vina5.pdbqt
 26 29 0 0 0
SMALL
GASTEIGER

@<TRIPOS>ATOM
      1  C1        42.3900   -1.0490   26.5980 C.2   860  INH860      0.2470
      2  C2        42.4140   -1.6680   25.3390 C.2   860  INH860      0.0920
      3  N2        41.2650   -1.1000   27.3420 N.pl3 860  INH860     -0.3640
      4  H2        41.2400   -0.6430   28.2530 H     860  INH860      0.1620
      5  C3        40.1780   -1.7510   26.8920 C.3   860  INH860      0.1790
      6  N3        40.1540   -2.3290   25.6830 N.3   860  INH860     -0.3400
      7  C4        41.2690   -2.3220   24.9030 C.3   860  INH860      0.1130
      8  N4        41.5550   -2.8380   23.6990 N.3   860  INH860     -0.2840
      9  C5        40.7550   -3.6140   22.7010 C.3   860  INH860      0.1790
     10  N5        42.8460   -2.5210   23.2580 N.3   860  INH860     -0.3000
     11  H5        43.2560   -2.7590   22.3540 H     860  INH860      0.1870
     12  C6        43.4450   -1.8380   24.2600 C.3   860  INH860      0.0520
     13  C7        44.7230   -1.2770   24.2810 C.ar  860  INH860     -0.0100
     14  C8        45.9410   -1.8420   23.8590 C.ar  860  INH860      0.0250
     15  C9        44.7030    0.0230   24.7610 C.ar  860  INH860      0.0140
     16  C10       45.8510    0.7780   24.8720 C.ar  860  INH860      0.0130
     17  C11       47.0530    0.2580   24.4750 C.ar  860  INH860     -0.0260
     18  C12       47.1140   -1.0510   23.9750 C.ar  860  INH860     -0.0250
     19  C13       48.1650    1.0800   24.6100 C.ar  860  INH860      0.0120
     20  C14       49.4030    0.5840   24.2160 C.ar  860  INH860      0.0010
     21  C15       49.5030   -0.7120   23.7170 C.ar  860  INH860      0.0010
     22  C16       48.3610   -1.5170   23.5870 C.ar  860  INH860      0.0120
     23  H         39.3300   -2.7580   25.3590 H     860  INH860      0.1680
     24  N1        43.4450   -0.4070   27.1060 N.pl3 860  INH860     -0.4090
     25  H1        43.7640   -0.6170   28.0620 H     860  INH860      0.1520
     26  H2        43.9400    0.2980   26.5410 H     860  INH860      0.1520
@<TRIPOS>BOND
     1    11    10    1
     2     9     8    1
     3    10     8    1
     4    10    12    1
     5    22    21   ar
     6    22    18   ar
     7     8     7    1
     8    21    20   ar
     9    14    18   ar
    10    14    13   ar
    11    18    17   ar
    12    20    19   ar
    13    12    13    1
    14    12     2    1
    15    13    15   ar
    16    17    19   ar
    17    17    16   ar
    18    15    16   ar
    19     7     2    1
    20     7     6    1
    21     2     1    2
    22    23     6    1
    23     6     5    1
    24    26    24    1
    25     1    24    1
    26     1     3    1
    27     5     3    1
    28    24    25    1
    29     3     4    1
