@<TRIPOS>MOLECULE
./ligand/2fqy_lig.pdb
 32 34 0 0 0
SMALL
GASTEIGER

@<TRIPOS>ATOM
      1  O1        31.3630   62.3670   13.1940 O.3   319  INH319     -0.3924
      2  C1        31.0520   61.0970   13.7430 C.3   319  INH319      0.0730
      3  C2        31.9130   60.0250   13.0660 C.3   319  INH319      0.1126
      4  O2        31.7390   60.0320   11.6080 O.3   319  INH319     -0.3457
      5  C3        33.4420   60.2370   13.3240 C.3   319  INH319      0.1135
      6  C4        34.0280   59.4720   12.1150 C.3   319  INH319      0.1285
      7  O3        34.0090   58.0480   12.3610 O.3   319  INH319     -0.3847
      8  C5        33.0530   59.8380   10.9880 C.3   319  INH319      0.1665
      9  N1        33.4930   61.0720   10.2890 N.ar  319  INH319     -0.2877
     10  N2        33.6560   63.2010    9.7010 N.ar  319  INH319     -0.2346
     11  C6        34.4050   62.4900    8.8310 C.ar  319  INH319      0.1287
     12  C7        35.1950   62.8230    7.7190 C.3   319  INH319      0.2004
     13  N3        35.3940   64.1540    7.3880 N.3   319  INH319     -0.2985
     14  N4        35.7570   61.8260    7.0110 N.2   319  INH319     -0.2420
     15  C8        35.6690   60.5280    7.4000 C.2   319  INH319      0.1049
     16  N5        34.9810   60.1740    8.4660 N.pl3 319  INH319     -0.1840
     17  C9        34.3200   61.1130    9.1930 C.ar  319  INH319      0.1528
     18  C10       33.1090   62.3770   10.5520 C.ar  319  INH319      0.0999
     19  H1        30.8300   63.0320   13.6130 H     319  INH319      0.2095
     20  H2        29.9880   60.8740   13.5730 H     319  INH319      0.0584
     21  H3        31.2570   61.1040   14.8240 H     319  INH319      0.0584
     22  H4        31.6120   59.0440   13.4640 H     319  INH319      0.0647
     23  H5        33.7060   61.3040   13.2720 H     319  INH319      0.0647
     24  H6        35.0530   59.8000   11.8860 H     319  INH319      0.0665
     25  H7        34.3720   57.5920   11.6110 H     319  INH319      0.2101
     26  H8        33.0020   59.0150   10.2600 H     319  INH319      0.0866
     27  H9        32.4410   62.6740   11.3590 H     319  INH319      0.1030
     28  H10       35.9730   64.4010    6.5730 H     319  INH319      0.1209
     29  H11       34.9630   64.8960    7.9570 H     319  INH319      0.1209
     30  H12       36.1760   59.7660    6.8200 H     319  INH319      0.1015
     31  O4        33.8650   59.7290   14.6100 O.3   319  INH319     -0.3864
     32  H13       34.7960   59.8800   14.7190 H     319  INH319      0.2100
@<TRIPOS>BOND
     1     1     2    1
     2     1    19    1
     3     2    21    1
     4     2    20    1
     5     2     3    1
     6     3    22    1
     7     3     5    1
     8     3     4    1
     9     4     8    1
    10     5     6    1
    11     5    23    1
    12     5    31    1
    13     6     8    1
    14     6     7    1
    15     6    24    1
    16     7    25    1
    17     8     9    1
    18     8    26    1
    19     9    18   ar
    20     9    17   ar
    21    10    11   ar
    22    10    18   ar
    23    11    17   ar
    24    11    12    1
    25    12    14    1
    26    12    13    1
    27    13    29    1
    28    13    28    1
    29    14    15    2
    30    15    16    1
    31    15    30    1
    32    16    17    1
    33    18    27    1
    34    31    32    1
