@<TRIPOS>MOLECULE
/tmp/ewbell/vina_2fqy_2fqy_lig/vina/vina4.pdbqt
 27 29 0 0 0
SMALL
GASTEIGER

@<TRIPOS>ATOM
      1  N1        33.2300   61.1240   -0.8690 N.3   319  INH319     -0.2970
      2  N2        35.3810   60.7870   -1.2750 N.pl3 319  INH319     -0.3490
      3  H2        36.3640   60.9590   -1.4850 H     319  INH319      0.1660
      4  C6        34.8270   59.5780   -1.0420 C.2   319  INH319      0.1070
      5  C7        35.3190   58.2630   -1.0150 C.2   319  INH319      0.6860
      6  N4        34.4470   57.2560   -0.8210 N.pl3 319  INH319     -0.3520
      7  H4        34.7810   56.2950   -0.8810 H     319  INH319      0.1620
      8  C8        33.1360   57.4820   -0.5480 C.3   319  INH319      0.1790
      9  N5        32.6400   58.7010   -0.5120 N.3   319  INH319     -0.3370
     10  C9        33.4390   59.7700   -0.7720 C.3   319  INH319      0.1380
     11  C10       34.4510   61.6970   -1.1870 C.3   319  INH319      0.1870
     12  H         31.6900   58.8390   -0.2960 H     319  INH319      0.1680
     13  C5        31.9170   61.8030   -0.7300 C.3   319  INH319      0.2620
     14  O2        32.0050   63.1990   -1.1680 O.3   319  INH319     -0.3530
     15  C2        31.8510   64.0610    0.0110 C.3   319  INH319      0.1790
     16  C3        32.0820   63.1420    1.2570 C.3   319  INH319      0.1820
     17  C4        31.4660   61.8230    0.7360 C.3   319  INH319      0.1980
     18  C1        32.8200   65.2480   -0.0260 C.3   319  INH319      0.1980
     19  O1        34.1160   64.8110    0.3480 O.3   319  INH319     -0.3980
     20  H1        34.3890   65.2670    1.1340 H     319  INH319      0.2090
     21  O4        31.4560   63.6580    2.4530 O.3   319  INH319     -0.3900
     22  H13       30.6610   64.1220    2.2190 H     319  INH319      0.2100
     23  O3        30.0240   61.8700    0.8230 O.3   319  INH319     -0.3880
     24  H7        29.6710   60.9950    0.7190 H     319  INH319      0.2100
     25  N3        36.6770   58.0320   -1.1680 N.pl3 319  INH319     -0.0950
     26  H11       37.1740   58.4080   -1.9870 H     319  INH319      0.2600
     27  H10       37.1880   57.4840   -0.4620 H     319  INH319      0.2600
@<TRIPOS>BOND
     1    26    25    1
     2     3     2    1
     3     2    11    1
     4     2     4    1
     5    11     1    1
     6    25     5    1
     7    25    27    1
     8    14    13    1
     9    14    15    1
    10     4     5    2
    11     4    10    1
    12     5     6    1
    13     7     6    1
    14     1    10    1
    15     1    13    1
    16     6     8    1
    17    10     9    1
    18    13    17    1
    19     8     9    1
    20     9    12    1
    21    18    15    1
    22    18    19    1
    23    15    16    1
    24    19    20    1
    25    24    23    1
    26    17    23    1
    27    17    16    1
    28    16    21    1
    29    22    21    1
