@<TRIPOS>MOLECULE
/tmp/ewbell/vina_2fqy_2fqy_lig/vina/vina2.pdbqt
 27 29 0 0 0
SMALL
GASTEIGER

@<TRIPOS>ATOM
      1  N1        34.1820   60.3090    9.5930 N.3   319  INH319     -0.2970
      2  N2        35.6460   60.9120    8.0450 N.pl3 319  INH319     -0.3490
      3  H2        36.3650   60.8650    7.3240 H     319  INH319      0.1660
      4  C6        35.0450   62.0390    8.4840 C.2   319  INH319      0.1070
      5  C7        35.1690   63.4020    8.1690 C.2   319  INH319      0.6860
      6  N4        34.4480   64.2910    8.8760 N.pl3 319  INH319     -0.3520
      7  H4        34.5910   65.2870    8.7100 H     319  INH319      0.1620
      8  C8        33.5350   63.9030    9.8040 C.3   319  INH319      0.1790
      9  N5        33.3480   62.6320   10.0960 N.3   319  INH319     -0.3370
     10  C9        34.0910   61.6750    9.4800 C.3   319  INH319      0.1380
     11  C10       35.1550   59.8950    8.6980 C.3   319  INH319      0.1870
     12  H         32.6690   62.3760   10.7600 H     319  INH319      0.1680
     13  C5        33.4210   59.4740   10.5580 C.3   319  INH319      0.2620
     14  O2        32.2540   60.2000   11.0660 O.3   319  INH319     -0.3530
     15  C2        32.4790   60.4960   12.4870 C.3   319  INH319      0.1790
     16  C3        34.0110   60.2930   12.7370 C.3   319  INH319      0.1820
     17  C4        34.2880   59.1170   11.7720 C.3   319  INH319      0.1980
     18  C1        32.0100   61.9090   12.8510 C.3   319  INH319      0.1980
     19  O1        30.6580   61.8610   13.2760 O.3   319  INH319     -0.3980
     20  H1        30.3440   62.7430   13.4340 H     319  INH319      0.2090
     21  O4        34.3150   60.0100   14.1220 O.3   319  INH319     -0.3900
     22  H13       33.9350   60.6830   14.6730 H     319  INH319      0.2100
     23  O3        33.8520   57.8700   12.3580 O.3   319  INH319     -0.3880
     24  H7        34.4960   57.1940   12.1810 H     319  INH319      0.2100
     25  N3        36.0050   63.7970    7.1370 N.pl3 319  INH319     -0.0950
     26  H11       36.5510   63.0950    6.6180 H     319  INH319      0.2600
     27  H10       36.0810   64.7940    6.8890 H     319  INH319      0.2600
@<TRIPOS>BOND
     1    26    25    1
     2    27    25    1
     3    25     5    1
     4     3     2    1
     5     2     4    1
     6     2    11    1
     7     5     4    2
     8     5     6    1
     9     4    10    1
    10    11     1    1
    11     7     6    1
    12     6     8    1
    13    10     1    1
    14    10     9    1
    15     1    13    1
    16     8     9    1
    17     9    12    1
    18    13    14    1
    19    13    17    1
    20    14    15    1
    21    17    23    1
    22    17    16    1
    23    24    23    1
    24    15    16    1
    25    15    18    1
    26    16    21    1
    27    18    19    1
    28    19    20    1
    29    21    22    1
