@<TRIPOS>MOLECULE
/tmp/ewbell/vina_2fqy_2fqy_lig/vina/vina5.pdbqt
 27 29 0 0 0
SMALL
GASTEIGER

@<TRIPOS>ATOM
      1  N1        31.1100   72.4080    9.0300 N.3   319  INH319     -0.2970
      2  N2        29.0730   73.2060    9.3730 N.pl3 319  INH319     -0.3490
      3  H2        28.0560   73.2810    9.4030 H     319  INH319      0.1660
      4  C6        29.9440   74.1380    9.8140 C.2   319  INH319      0.1070
      5  C7        29.8070   75.4090   10.3960 C.2   319  INH319      0.6860
      6  N4        30.9210   76.1200   10.6490 N.pl3 319  INH319     -0.3520
      7  H4        30.8300   77.0750   10.9960 H     319  INH319      0.1620
      8  C8        32.1630   75.6060   10.4580 C.3   319  INH319      0.1790
      9  N5        32.3400   74.3980    9.9620 N.3   319  INH319     -0.3370
     10  C9        31.2660   73.6440    9.6090 C.3   319  INH319      0.1380
     11  C10       29.7470   72.1930    8.9010 C.3   319  INH319      0.1870
     12  H         33.2500   74.0430    9.8480 H     319  INH319      0.1680
     13  C5        32.2150   71.5280    8.5720 C.3   319  INH319      0.2620
     14  O2        33.4270   72.3090    8.3100 O.3   319  INH319     -0.3530
     15  C2        33.6790   72.2970    6.8630 C.3   319  INH319      0.1790
     16  C3        32.3450   71.8280    6.1930 C.3   319  INH319      0.1820
     17  C4        31.8440   70.8260    7.2580 C.3   319  INH319      0.1980
     18  C1        34.1360   73.6690    6.3580 C.3   319  INH319      0.1980
     19  O1        33.8890   74.6450    7.3570 O.3   319  INH319     -0.3980
     20  H1        33.2290   74.3230    7.9580 H     319  INH319      0.2090
     21  O4        32.5530   71.2490    4.8840 O.3   319  INH319     -0.3900
     22  H13       33.3330   70.7090    4.8980 H     319  INH319      0.2100
     23  O3        32.5470   69.5690    7.1380 O.3   319  INH319     -0.3880
     24  H7        33.3560   69.6090    7.6340 H     319  INH319      0.2100
     25  N3        28.5470   75.8910   10.7120 N.pl3 319  INH319     -0.0950
     26  H11       28.4240   76.5240   11.5140 H     319  INH319      0.2600
     27  H10       27.7330   75.6160   10.1430 H     319  INH319      0.2600
@<TRIPOS>BOND
     1    21    22    1
     2    21    16    1
     3    16    15    1
     4    16    17    1
     5    18    15    1
     6    18    19    1
     7    15    14    1
     8    23    17    1
     9    23    24    1
    10    17    13    1
    11    19    20    1
    12    14    13    1
    13    13     1    1
    14    11     1    1
    15    11     2    1
    16     1    10    1
    17     2     3    1
    18     2     4    1
    19    10     4    1
    20    10     9    1
    21     4     5    2
    22    12     9    1
    23     9     8    1
    24    27    25    1
    25     5     6    1
    26     5    25    1
    27     8     6    1
    28     6     7    1
    29    25    26    1
