@<TRIPOS>MOLECULE
/tmp/ewbell/vina_2fqy_2fqy_lig/vina/vina3.pdbqt
 27 29 0 0 0
SMALL
GASTEIGER

@<TRIPOS>ATOM
      1  N1        32.3120   60.9910   -0.8650 N.3   319  INH319     -0.2970
      2  N2        33.0650   58.9720   -0.3550 N.pl3 319  INH319     -0.3490
      3  H2        33.1080   58.0180    0.0020 H     319  INH319      0.1660
      4  C6        34.0580   59.6130   -1.0080 C.2   319  INH319      0.1070
      5  C7        35.3650   59.2670   -1.3870 C.2   319  INH319      0.6860
      6  N4        36.1310   60.2040   -1.9750 N.pl3 319  INH319     -0.3520
      7  H4        37.1060   59.9880   -2.1800 H     319  INH319      0.1620
      8  C8        35.6460   61.4290   -2.3040 C.3   319  INH319      0.1790
      9  N5        34.4100   61.7800   -2.0140 N.3   319  INH319     -0.3370
     10  C9        33.5940   60.9170   -1.3520 C.3   319  INH319      0.1380
     11  C10       32.0420   59.7760   -0.2570 C.3   319  INH319      0.1870
     12  H         34.0770   62.6680   -2.2780 H     319  INH319      0.1680
     13  C5        31.4370   62.1890   -0.9270 C.3   319  INH319      0.2620
     14  O2        32.2160   63.3860   -1.2570 O.3   319  INH319     -0.3530
     15  C2        32.2400   64.2590   -0.0770 C.3   319  INH319      0.1790
     16  C3        31.7980   63.3700    1.1330 C.3   319  INH319      0.1820
     17  C4        30.7720   62.4510    0.4320 C.3   319  INH319      0.1980
     18  C1        33.6220   64.8870    0.1330 C.3   319  INH319      0.1980
     19  O1        34.5530   63.8730    0.4730 O.3   319  INH319     -0.3980
     20  H1        35.1380   64.1940    1.1500 H     319  INH319      0.2090
     21  O4        31.2520   64.1460    2.2240 O.3   319  INH319     -0.3900
     22  H13       30.8100   63.5670    2.8330 H     319  INH319      0.2100
     23  O3        29.5140   63.1390    0.2580 O.3   319  INH319     -0.3880
     24  H7        29.4510   63.8490    0.8860 H     319  INH319      0.2100
     25  N3        35.8270   57.9790   -1.1690 N.pl3 319  INH319     -0.0950
     26  H11       36.4020   57.7720   -0.3400 H     319  INH319      0.2600
     27  H10       35.5960   57.2290   -1.8350 H     319  INH319      0.2600
@<TRIPOS>BOND
     1     8     9    1
     2     8     6    1
     3    12     9    1
     4     7     6    1
     5     9    10    1
     6     6     5    1
     7    27    25    1
     8     5    25    1
     9     5     4    2
    10    10     4    1
    11    10     1    1
    12    14    13    1
    13    14    15    1
    14    25    26    1
    15     4     2    1
    16    13     1    1
    17    13    17    1
    18     1    11    1
    19     2    11    1
    20     2     3    1
    21    15    18    1
    22    15    16    1
    23    18    19    1
    24    23    17    1
    25    23    24    1
    26    17    16    1
    27    19    20    1
    28    16    21    1
    29    21    22    1
