@<TRIPOS>MOLECULE
/tmp/ewbell/vina_2fqy_2fqy_lig/vina/vina1.pdbqt
 27 29 0 0 0
SMALL
GASTEIGER

@<TRIPOS>ATOM
      1  N1        33.4210   61.1400   10.4360 N.3   319  INH319     -0.2970
      2  N2        33.5700   63.3010    9.9730 N.pl3 319  INH319     -0.3490
      3  H2        33.4310   64.3100   10.0130 H     319  INH319      0.1660
      4  C6        34.3820   62.6520    9.1100 C.2   319  INH319      0.1070
      5  C7        35.2250   63.0600    8.0640 C.2   319  INH319      0.6860
      6  N4        35.8470   62.1140    7.3360 N.pl3 319  INH319     -0.3520
      7  H4        36.3960   62.3960    6.5250 H     319  INH319      0.1620
      8  C8        35.7660   60.7960    7.6500 C.3   319  INH319      0.1790
      9  N5        35.0270   60.3710    8.6550 N.3   319  INH319     -0.3370
     10  C9        34.3070   61.2560    9.3920 C.3   319  INH319      0.1380
     11  C10       32.9950   62.4210   10.7460 C.3   319  INH319      0.1870
     12  H         34.9980   59.4110    8.8710 H     319  INH319      0.1680
     13  C5        32.9700   59.8620   11.0420 C.3   319  INH319      0.2620
     14  O2        31.6240   60.0000   11.6050 O.3   319  INH319     -0.3530
     15  C2        31.7260   59.9130   13.0680 C.3   319  INH319      0.1790
     16  C3        33.2370   60.1340   13.4130 C.3   319  INH319      0.1820
     17  C4        33.8950   59.4480   12.1940 C.3   319  INH319      0.1980
     18  C1        30.8140   60.9310   13.7590 C.3   319  INH319      0.1980
     19  O1        31.1670   62.2400   13.3430 O.3   319  INH319     -0.3980
     20  H1        32.0140   62.2170   12.9140 H     319  INH319      0.2090
     21  O4        33.6050   59.5600   14.6880 O.3   319  INH319     -0.3900
     22  H13       32.9040   59.0000   14.9980 H     319  INH319      0.2100
     23  O3        33.8900   58.0120   12.3590 O.3   319  INH319     -0.3880
     24  H7        34.3550   57.7830   13.1550 H     319  INH319      0.2100
     25  N3        35.4130   64.4110    7.8160 N.pl3 319  INH319     -0.0950
     26  H11       34.8940   64.8720    7.0550 H     319  INH319      0.2600
     27  H10       36.0710   64.9540    8.3930 H     319  INH319      0.2600
@<TRIPOS>BOND
     1     7     6    1
     2    26    25    1
     3     6     8    1
     4     6     5    1
     5     8     9    1
     6    25     5    1
     7    25    27    1
     8     5     4    2
     9     9    12    1
    10     9    10    1
    11     4    10    1
    12     4     2    1
    13    10     1    1
    14     2     3    1
    15     2    11    1
    16     1    11    1
    17     1    13    1
    18    13    14    1
    19    13    17    1
    20    14    15    1
    21    17    23    1
    22    17    16    1
    23    23    24    1
    24    20    19    1
    25    15    16    1
    26    15    18    1
    27    19    18    1
    28    16    21    1
    29    21    22    1
