@<TRIPOS>MOLECULE
./ligand/2iwx_lig.pdb
 45 46 0 0 0
SMALL
GASTEIGER

@<TRIPOS>ATOM
      1  C1        55.2130   75.9430   -5.7160 C.2   217  INH217      0.3431
      2  C2        55.1850   76.8410   -4.5140 C.ar  217  INH217      0.1054
      3  C3        54.3080   77.9400   -4.5250 C.ar  217  INH217      0.1346
      4  C4        54.2500   78.8390   -3.4690 C.ar  217  INH217      0.0236
      5  C5        55.1110   78.6130   -2.3920 C.ar  217  INH217      0.1389
      6  C6        55.9470   77.5310   -2.4050 C.ar  217  INH217      0.0869
      7  C7        56.0390   76.6130   -3.4390 C.ar  217  INH217     -0.0009
      8  C8        57.0120   75.4290   -3.3490 C.3   217  INH217      0.0334
      9  C9        58.3680   75.6650   -3.9470 C.2   217  INH217      0.1377
     10  C10       58.8980   77.0470   -4.2040 C.3   217  INH217      0.0062
     11  C11       60.3080   76.9840   -4.8030 C.3   217  INH217     -0.0464
     12  C12       60.8100   78.3620   -5.2040 C.3   217  INH217     -0.0524
     13  C13       59.9570   79.0080   -6.2950 C.3   217  INH217     -0.0496
     14  C14       60.0570   78.2250   -7.6030 C.3   217  INH217     -0.0348
     15  C15       58.7230   77.5900   -7.9270 C.2   217  INH217     -0.0878
     16  C16       58.6180   76.2670   -8.0280 C.2   217  INH217     -0.0847
     17  C17       57.2910   75.6270   -8.3670 C.3   217  INH217     -0.0003
     18  C18       56.6900   74.7670   -7.2600 C.3   217  INH217      0.0962
     19  O1        54.2500   75.6110   -6.3730 O.2   217  INH217     -0.2448
     20  O2        53.4440   78.1320   -5.5890 O.3   217  INH217     -0.5058
     21  O3        55.1350   79.4940   -1.3390 O.3   217  INH217     -0.5052
     22 Cl1        56.9420   77.2720   -0.9640 Cl    217  INH217     -0.0794
     23  O4        59.0370   74.6520   -4.1670 O.2   217  INH217     -0.2971
     24  O5        56.5320   75.5970   -6.0790 O.3   217  INH217     -0.4608
     25  H1        53.5660   79.6800   -3.4790 H     217  INH217      0.0691
     26  H2        56.5560   74.5740   -3.8690 H     217  INH217      0.0391
     27  H3        57.1480   75.1810   -2.2860 H     217  INH217      0.0391
     28  H4        58.9330   77.6020   -3.2550 H     217  INH217      0.0342
     29  H5        58.2300   77.5650   -4.9070 H     217  INH217      0.0342
     30  H6        60.2890   76.3390   -5.6940 H     217  INH217      0.0269
     31  H7        60.9940   76.5580   -4.0560 H     217  INH217      0.0269
     32  H8        61.8410   78.2660   -5.5750 H     217  INH217      0.0265
     33  H9        60.7980   79.0120   -4.3170 H     217  INH217      0.0265
     34  H10       60.3080   80.0370   -6.4640 H     217  INH217      0.0268
     35  H11       58.9070   79.0270   -5.9670 H     217  INH217      0.0268
     36  H12       60.8190   77.4390   -7.5000 H     217  INH217      0.0307
     37  H13       60.3420   78.9090   -8.4160 H     217  INH217      0.0307
     38  H14       57.8460   78.2170   -8.0780 H     217  INH217      0.0569
     39  H15       59.4940   75.6410   -7.8650 H     217  INH217      0.0570
     40  H16       57.4350   74.9910   -9.2530 H     217  INH217      0.0340
     41  H17       56.5760   76.4290   -8.6030 H     217  INH217      0.0340
     42  H18       57.3610   73.9250   -7.0360 H     217  INH217      0.0700
     43  H19       55.7100   74.3810   -7.5780 H     217  INH217      0.0700
     44  H20       52.9260   78.9140   -5.4380 H     217  INH217      0.2922
     45  H21       54.4970   80.1820   -1.4880 H     217  INH217      0.2922
@<TRIPOS>BOND
     1     1    24    1
     2     1    19    2
     3     1     2    1
     4     2     7   ar
     5     2     3   ar
     6     3    20    1
     7     3     4   ar
     8     4    25    1
     9     4     5   ar
    10     5    21    1
    11     5     6   ar
    12     6    22    1
    13     6     7   ar
    14     7     8    1
    15     8    27    1
    16     8    26    1
    17     8     9    1
    18     9    23    2
    19     9    10    1
    20    10    29    1
    21    10    28    1
    22    10    11    1
    23    11    31    1
    24    11    30    1
    25    11    12    1
    26    12    33    1
    27    12    32    1
    28    12    13    1
    29    13    35    1
    30    13    34    1
    31    13    14    1
    32    14    37    1
    33    14    36    1
    34    14    15    1
    35    15    38    1
    36    15    16    2
    37    16    39    1
    38    16    17    1
    39    17    41    1
    40    17    40    1
    41    17    18    1
    42    18    43    1
    43    18    42    1
    44    18    24    1
    45    20    44    1
    46    21    45    1
