@<TRIPOS>MOLECULE
/tmp/ewbell/vina_2iwx_2iwx_lig/vina/vina2.pdbqt
 26 27 0 0 0
SMALL
GASTEIGER

@<TRIPOS>ATOM
      1  C1        61.1720   75.4980   -6.8390 C.2   217  INH217      0.2960
      2  C2        61.2650   75.3490   -5.3490 C.ar  217  INH217      0.0810
      3  C3        61.5070   74.0690   -4.8220 C.ar  217  INH217      0.0850
      4  C4        61.5690   73.8410   -3.4540 C.ar  217  INH217      0.0760
      5  C5        61.3690   74.9410   -2.6160 C.ar  217  INH217      0.0900
      6  C6        61.1440   76.1770   -3.1570 C.ar  217  INH217      0.0750
      7  C7        61.0710   76.4460   -4.5140 C.ar  217  INH217     -0.0080
      8  C8        60.8170   77.8750   -5.0150 C.3   217  INH217      0.1190
      9  C9        59.3780   78.2240   -5.2570 C.2   217  INH217      0.1310
     10  C10       58.2520   77.4360   -4.6490 C.3   217  INH217      0.0780
     11  C11       56.8970   78.0280   -5.0540 C.3   217  INH217      0.0070
     12  C12       55.7410   77.1670   -4.5700 C.3   217  INH217      0.0010
     13  C13       55.7480   75.7680   -5.1840 C.3   217  INH217      0.0040
     14  C14       55.5070   75.8310   -6.6920 C.3   217  INH217      0.0270
     15  C15       56.7500   75.3900   -7.4320 C.2   217  INH217     -0.0310
     16  C16       57.3660   76.2260   -8.2630 C.2   217  INH217     -0.0290
     17  C17       58.6000   75.7860   -9.0180 C.3   217  INH217      0.0530
     18  C18       59.8820   76.5200   -8.6390 C.3   217  INH217      0.1830
     19  O1        61.8550   74.9120   -7.6520 O.2   217  INH217     -0.2590
     20 Cl1        60.9870   77.5290   -2.0250 Cl    217  INH217     -0.0810
     21  O4        59.1820   79.2290   -5.9450 O.2   217  INH217     -0.2980
     22  O5        60.1030   76.3380   -7.2150 O.3   217  INH217     -0.3170
     23  O2        61.7290   72.9970   -5.6680 O.3   217  INH217     -0.3600
     24  H20       61.9050   72.2180   -5.1530 H     217  INH217      0.2170
     25  O3        61.3700   74.7720   -1.2530 O.3   217  INH217     -0.3590
     26  H21       62.0440   75.3190   -0.8670 H     217  INH217      0.2170
@<TRIPOS>BOND
     1    17    18    1
     2    17    16    1
     3    18    22    1
     4    16    15    2
     5    19     1    2
     6    15    14    1
     7    22     1    1
     8     1     2    1
     9    14    13    1
    10    21     9    2
    11    23    24    1
    12    23     3    1
    13     2     3   ar
    14     2     7   ar
    15     9     8    1
    16     9    10    1
    17    13    12    1
    18    11    10    1
    19    11    12    1
    20     8     7    1
    21     3     4   ar
    22     7     6   ar
    23     4     5   ar
    24     6     5   ar
    25     6    20    1
    26     5    25    1
    27    25    26    1
