@<TRIPOS>MOLECULE
/tmp/ewbell/vina_2iwx_2iwx_lig/vina/vina5.pdbqt
 26 27 0 0 0
SMALL
GASTEIGER

@<TRIPOS>ATOM
      1  C1        60.3430   76.9030   -3.3660 C.2   217  INH217      0.2960
      2  C2        60.4380   77.4290   -4.7680 C.ar  217  INH217      0.0810
      3  C3        61.0090   78.6980   -4.9650 C.ar  217  INH217      0.0850
      4  C4        61.0990   79.2710   -6.2270 C.ar  217  INH217      0.0760
      5  C5        60.5860   78.5360   -7.2980 C.ar  217  INH217      0.0900
      6  C6        60.0440   77.3000   -7.0770 C.ar  217  INH217      0.0750
      7  C7        59.9320   76.6940   -5.8360 C.ar  217  INH217     -0.0080
      8  C8        59.3080   75.2980   -5.7010 C.3   217  INH217      0.1190
      9  C9        57.8340   75.2770   -5.4200 C.2   217  INH217      0.1310
     10  C10       56.9530   76.4640   -5.6890 C.3   217  INH217      0.0780
     11  C11       55.4970   76.1520   -5.3230 C.3   217  INH217      0.0070
     12  C12       54.6100   77.3810   -5.4510 C.3   217  INH217      0.0010
     13  C13       55.0150   78.5050   -4.4980 C.3   217  INH217      0.0040
     14  C14       54.8010   78.0920   -3.0430 C.3   217  INH217      0.0270
     15  C15       56.1340   77.9760   -2.3390 C.2   217  INH217     -0.0310
     16  C16       56.5170   76.8130   -1.8170 C.2   217  INH217     -0.0290
     17  C17       57.8410   76.6950   -1.0970 C.3   217  INH217      0.0530
     18  C18       58.8640   75.7900   -1.7770 C.3   217  INH217      0.1830
     19  O1        61.1790   77.0450   -2.4990 O.2   217  INH217     -0.2590
     20 Cl1        59.4960   76.4010   -8.5010 Cl    217  INH217     -0.0810
     21  O4        57.3860   74.2070   -5.0010 O.2   217  INH217     -0.2980
     22  O5        59.0930   76.2960   -3.1190 O.3   217  INH217     -0.3170
     23  O2        61.5360   79.4000   -3.8950 O.3   217  INH217     -0.3600
     24  H20       62.3030   78.9460   -3.5660 H     217  INH217      0.2170
     25  O3        60.6010   79.0690   -8.5630 O.3   217  INH217     -0.3590
     26  H21       61.3110   79.6960   -8.6330 H     217  INH217      0.2170
@<TRIPOS>BOND
     1    26    25    1
     2    25     5    1
     3    20     6    1
     4     5     6   ar
     5     5     4   ar
     6     6     7   ar
     7     4     3   ar
     8     7     8    1
     9     7     2   ar
    10     8     9    1
    11    10     9    1
    12    10    11    1
    13    12    11    1
    14    12    13    1
    15     9    21    2
    16     3     2   ar
    17     3    23    1
    18     2     1    1
    19    13    14    1
    20    23    24    1
    21     1    22    1
    22     1    19    2
    23    22    18    1
    24    14    15    1
    25    15    16    2
    26    16    17    1
    27    18    17    1
