@<TRIPOS>MOLECULE
/tmp/ewbell/vina_2iwx_2iwx_lig/vina/vina1.pdbqt
 26 27 0 0 0
SMALL
GASTEIGER

@<TRIPOS>ATOM
      1  C1        55.5110   75.7970   -5.7270 C.2   217  INH217      0.2960
      2  C2        55.5840   76.5700   -4.4430 C.ar  217  INH217      0.0810
      3  C3        54.6820   77.6320   -4.2540 C.ar  217  INH217      0.0850
      4  C4        54.7090   78.4200   -3.1110 C.ar  217  INH217      0.0760
      5  C5        55.6820   78.1200   -2.1540 C.ar  217  INH217      0.0900
      6  C6        56.5400   77.0760   -2.3610 C.ar  217  INH217      0.0750
      7  C7        56.5490   76.2680   -3.4870 C.ar  217  INH217     -0.0080
      8  C8        57.5570   75.1170   -3.6150 C.3   217  INH217      0.1190
      9  C9        58.8380   75.4600   -4.3180 C.2   217  INH217      0.1310
     10  C10       59.3020   76.8790   -4.4850 C.3   217  INH217      0.0780
     11  C11       60.6440   76.9260   -5.2250 C.3   217  INH217      0.0070
     12  C12       61.0660   78.3540   -5.5310 C.3   217  INH217      0.0010
     13  C13       60.0890   79.0740   -6.4600 C.3   217  INH217      0.0040
     14  C14       60.0750   78.4280   -7.8440 C.3   217  INH217      0.0270
     15  C15       58.7310   77.7800   -8.0970 C.2   217  INH217     -0.0310
     16  C16       58.6510   76.4710   -8.3210 C.2   217  INH217     -0.0290
     17  C17       57.3130   75.8200   -8.5900 C.3   217  INH217      0.0530
     18  C18       56.8520   74.8330   -7.5220 C.3   217  INH217      0.1830
     19  O1        54.4950   75.4970   -6.3150 O.2   217  INH217     -0.2590
     20 Cl1        57.6840   76.7120   -1.0600 Cl    217  INH217     -0.0810
     21  O4        59.5060   74.4980   -4.7060 O.2   217  INH217     -0.2980
     22  O5        56.7940   75.5360   -6.2530 O.3   217  INH217     -0.3170
     23  O2        53.7080   77.8970   -5.2010 O.3   217  INH217     -0.3600
     24  H20       52.8700   78.0120   -4.7690 H     217  INH217      0.2170
     25  O3        55.7910   78.8930   -1.0250 O.3   217  INH217     -0.3590
     26  H21       55.3630   78.4540   -0.2990 H     217  INH217      0.2170
@<TRIPOS>BOND
     1    17    16    1
     2    17    18    1
     3    16    15    2
     4    15    14    1
     5    14    13    1
     6    18    22    1
     7    13    12    1
     8    19     1    2
     9    22     1    1
    10     1     2    1
    11    12    11    1
    12    11    10    1
    13    23    24    1
    14    23     3    1
    15    21     9    2
    16    10     9    1
    17     2     3   ar
    18     2     7   ar
    19     9     8    1
    20     3     4   ar
    21     8     7    1
    22     7     6   ar
    23     4     5   ar
    24     6     5   ar
    25     6    20    1
    26     5    25    1
    27    25    26    1
