@<TRIPOS>MOLECULE
/tmp/ewbell/vina_2iwx_2iwx_lig/vina/vina3.pdbqt
 26 27 0 0 0
SMALL
GASTEIGER

@<TRIPOS>ATOM
      1  C1        61.1730   77.5000   -1.6850 C.2   217  INH217      0.2960
      2  C2        61.9840   78.0980   -2.7970 C.ar  217  INH217      0.0810
      3  C3        62.2910   79.4690   -2.7340 C.ar  217  INH217      0.0850
      4  C4        63.0040   80.1050   -3.7410 C.ar  217  INH217      0.0760
      5  C5        63.3970   79.3260   -4.8320 C.ar  217  INH217      0.0900
      6  C6        63.0910   77.9940   -4.8630 C.ar  217  INH217      0.0750
      7  C7        62.3800   77.3220   -3.8820 C.ar  217  INH217     -0.0080
      8  C8        62.0940   75.8190   -4.0150 C.3   217  INH217      0.1190
      9  C9        60.7880   75.4690   -4.6660 C.2   217  INH217      0.1310
     10  C10       60.0310   76.4490   -5.5160 C.3   217  INH217      0.0780
     11  C11       58.7460   75.8150   -6.0610 C.3   217  INH217      0.0070
     12  C12       57.8910   76.8280   -6.8060 C.3   217  INH217      0.0010
     13  C13       57.4080   77.9680   -5.9100 C.3   217  INH217      0.0040
     14  C14       56.4510   77.4520   -4.8370 C.3   217  INH217      0.0270
     15  C15       57.0830   77.5940   -3.4700 C.2   217  INH217     -0.0310
     16  C16       57.2980   76.5170   -2.7170 C.2   217  INH217     -0.0290
     17  C17       57.9150   76.6540   -1.3440 C.3   217  INH217      0.0530
     18  C18       59.2950   76.0230   -1.1930 C.3   217  INH217      0.1830
     19  O1        61.2710   77.7790   -0.5100 O.2   217  INH217     -0.2590
     20 Cl1        63.7010   77.0650   -6.2410 Cl    217  INH217     -0.0810
     21  O4        60.4030   74.3090   -4.4980 O.2   217  INH217     -0.2980
     22  O5        60.1780   76.6280   -2.1750 O.3   217  INH217     -0.3170
     23  O2        61.9170   80.2170   -1.6320 O.3   217  INH217     -0.3600
     24  H20       62.6680   80.7000   -1.3080 H     217  INH217      0.2170
     25  O3        64.0630   79.9080   -5.8830 O.3   217  INH217     -0.3590
     26  H21       64.9170   79.5030   -5.9800 H     217  INH217      0.2170
@<TRIPOS>BOND
     1    12    11    1
     2    12    13    1
     3    20     6    1
     4    11    10    1
     5    26    25    1
     6    13    14    1
     7    25     5    1
     8    10     9    1
     9     6     5   ar
    10     6     7   ar
    11    14    15    1
    12     5     4   ar
    13     9    21    2
    14     9     8    1
    15     8     7    1
    16     7     2   ar
    17     4     3   ar
    18    15    16    2
    19     2     3   ar
    20     2     1    1
    21     3    23    1
    22    16    17    1
    23    22     1    1
    24    22    18    1
    25     1    19    2
    26    23    24    1
    27    17    18    1
