@<TRIPOS>MOLECULE
/tmp/ewbell/vina_2iwx_2iwx_lig/vina/vina4.pdbqt
 26 27 0 0 0
SMALL
GASTEIGER

@<TRIPOS>ATOM
      1  C1        64.2410   75.9980   -5.3230 C.2   217  INH217      0.2960
      2  C2        63.5200   77.3120   -5.2510 C.ar  217  INH217      0.0810
      3  C3        64.2830   78.4820   -5.0930 C.ar  217  INH217      0.0850
      4  C4        63.6900   79.7310   -4.9800 C.ar  217  INH217      0.0760
      5  C5        62.2940   79.7800   -5.0200 C.ar  217  INH217      0.0900
      6  C6        61.5780   78.6260   -5.1840 C.ar  217  INH217      0.0750
      7  C7        62.1300   77.3600   -5.2960 C.ar  217  INH217     -0.0080
      8  C8        61.2310   76.1290   -5.4810 C.3   217  INH217      0.1190
      9  C9        60.8340   75.4280   -4.2150 C.2   217  INH217      0.1310
     10  C10       60.9140   76.0970   -2.8720 C.3   217  INH217      0.0780
     11  C11       60.4320   75.1520   -1.7660 C.3   217  INH217      0.0070
     12  C12       60.6360   75.7530   -0.3850 C.3   217  INH217      0.0010
     13  C13       62.1080   76.0050   -0.0610 C.3   217  INH217      0.0040
     14  C14       62.8810   74.6900    0.0320 C.3   217  INH217      0.0270
     15  C15       63.8800   74.5980   -1.1000 C.2   217  INH217     -0.0310
     16  C16       63.7990   73.6080   -1.9850 C.2   217  INH217     -0.0290
     17  C17       64.8040   73.5010   -3.1100 C.3   217  INH217      0.0530
     18  C18       64.2280   73.6990   -4.5080 C.3   217  INH217      0.1830
     19  O1        65.2970   75.8000   -5.8840 O.2   217  INH217     -0.2590
     20 Cl1        59.8190   78.7880   -5.3090 Cl    217  INH217     -0.0810
     21  O4        60.3910   74.2850   -4.3560 O.2   217  INH217     -0.2980
     22  O5        63.5950   75.0050   -4.5560 O.3   217  INH217     -0.3170
     23  O2        65.6660   78.4160   -5.0830 O.3   217  INH217     -0.3600
     24  H20       65.9980   78.8910   -4.3300 H     217  INH217      0.2170
     25  O3        61.6470   80.9810   -4.8650 O.3   217  INH217     -0.3590
     26  H21       61.8730   81.5570   -5.5860 H     217  INH217      0.2170
@<TRIPOS>BOND
     1    19     1    2
     2    26    25    1
     3     8     7    1
     4     8     9    1
     5     1     2    1
     6     1    22    1
     7    20     6    1
     8     7     2   ar
     9     7     6   ar
    10     2     3   ar
    11     6     5   ar
    12     3    23    1
    13     3     4   ar
    14    23    24    1
    15     5     4   ar
    16     5    25    1
    17    22    18    1
    18    18    17    1
    19    21     9    2
    20     9    10    1
    21    17    16    1
    22    10    11    1
    23    16    15    2
    24    11    12    1
    25    15    14    1
    26    12    13    1
    27    13    14    1
