@<TRIPOS>MOLECULE
./ligand/1gpk_lig.pdb
 37 39 0 0 0
SMALL
GASTEIGER

@<TRIPOS>ATOM
      1  C1         0.7260   68.8480   60.5950 C.ar  534  INH534      0.2489
      2  O1         0.2650   69.3310   59.5260 O.2   534  INH534     -0.2679
      3  N1         2.0070   68.2910   60.6140 N.ar  534  INH534     -0.3257
      4  C2         0.0030   68.8250   61.8590 C.ar  534  INH534      0.0033
      5  C3         0.5760   68.2720   62.9860 C.ar  534  INH534     -0.0458
      6  C4         1.9080   67.6940   62.9880 C.ar  534  INH534      0.0271
      7  C5         2.6240   67.7230   61.7490 C.ar  534  INH534      0.0290
      8  C6         4.0170   67.1690   61.5600 C.3   534  INH534     -0.0017
      9  C7         4.6570   66.5980   62.9020 C.3   534  INH534      0.0096
     10  C8         5.3760   67.6940   63.7160 C.2   534  INH534     -0.0771
     11  C9         4.3520   63.5530   63.7420 C.3   534  INH534     -0.0463
     12  C10        3.4630   64.6910   64.1430 C.2   534  INH534     -0.0814
     13  C11        3.5630   65.9670   63.7940 C.2   534  INH534     -0.0112
     14  C12        2.5690   67.0470   64.2830 C.3   534  INH534      0.0398
     15  N2         1.5080   66.4560   65.1460 N.4   534  INH534      0.2297
     16  C13        3.3210   68.1300   65.1110 C.3   534  INH534      0.0225
     17  C14        4.7650   68.3870   64.7180 C.2   534  INH534     -0.0697
     18  C15        5.4530   69.4590   65.5360 C.3   534  INH534     -0.0435
     19  H1         2.5260   68.2950   59.7590 H     534  INH534      0.1686
     20  H2        -0.9990   69.2480   61.9150 H     534  INH534      0.0672
     21  H3         0.0050   68.2690   63.9130 H     534  INH534      0.0625
     22  H4         4.6640   67.9730   61.1800 H     534  INH534      0.0336
     23  H5         3.9710   66.3550   60.8210 H     534  INH534      0.0336
     24  H6         5.3900   65.8230   62.6320 H     534  INH534      0.0394
     25  H7         6.4140   67.9230   63.4800 H     534  INH534      0.0578
     26  H8         3.9900   62.6240   64.2060 H     534  INH534      0.0272
     27  H9         5.3800   63.7550   64.0780 H     534  INH534      0.0272
     28  H10        4.3380   63.4450   62.6470 H     534  INH534      0.0272
     29  H11        2.6330   64.4400   64.8020 H     534  INH534      0.0571
     30  H12        0.8770   67.1820   65.4480 H     534  INH534      0.2006
     31  H13        1.9320   66.0230   65.9510 H     534  INH534      0.2006
     32  H14        0.9960   65.7630   64.6220 H     534  INH534      0.2006
     33  H15        3.3100   67.8150   66.1650 H     534  INH534      0.0375
     34  H16        2.7700   69.0760   65.0060 H     534  INH534      0.0375
     35  H17        6.4890   69.5790   65.1860 H     534  INH534      0.0274
     36  H18        5.4560   69.1660   66.5960 H     534  INH534      0.0274
     37  H19        4.9140   70.4110   65.4200 H     534  INH534      0.0274
@<TRIPOS>BOND
     1     1     3   ar
     2     1     4   ar
     3     1     2    2
     4     3     7   ar
     5     3    19    1
     6     4    20    1
     7     4     5   ar
     8     5    21    1
     9     5     6   ar
    10     6     7   ar
    11     6    14    1
    12     7     8    1
    13     8     9    1
    14     8    23    1
    15     8    22    1
    16     9    13    1
    17     9    24    1
    18     9    10    1
    19    10    17    2
    20    10    25    1
    21    11    28    1
    22    11    27    1
    23    11    26    1
    24    11    12    1
    25    12    29    1
    26    12    13    2
    27    13    14    1
    28    14    16    1
    29    14    15    1
    30    15    32    1
    31    15    31    1
    32    15    30    1
    33    16    34    1
    34    16    33    1
    35    16    17    1
    36    17    18    1
    37    18    37    1
    38    18    36    1
    39    18    35    1
