@<TRIPOS>MOLECULE
/tmp/ewbell/vina_1gpk_1gpk_lig/vina/vina1.pdbqt
 22 24 0 0 0
SMALL
GASTEIGER

@<TRIPOS>ATOM
      1  C1         0.6400   68.9160   60.7630 C.ar  534  INH534      0.2450
      2  O1         0.1660   69.4050   59.7020 O.2   534  INH534     -0.2680
      3  N1         1.9390   68.4010   60.7760 N.ar  534  INH534     -0.3270
      4  C2        -0.0850   68.8440   62.0240 C.ar  534  INH534      0.0750
      5  C3         0.5030   68.2890   63.1420 C.ar  534  INH534      0.0170
      6  C4         1.8530   67.7550   63.1370 C.ar  534  INH534      0.0050
      7  C5         2.5710   67.8320   61.9010 C.ar  534  INH534      0.0220
      8  C6         3.9820   67.3280   61.7060 C.3   534  INH534      0.0700
      9  C7         4.6370   66.7520   63.0390 C.3   534  INH534      0.0450
     10  C8         5.3180   67.8550   63.8760 C.2   534  INH534     -0.0150
     11  C9         4.4310   63.6830   63.8180 C.3   534  INH534      0.0360
     12  C10        3.5040   64.7830   64.2380 C.2   534  INH534     -0.0250
     13  C11        3.5620   66.0680   63.9140 C.2   534  INH534     -0.0360
     14  C12        2.5320   67.1050   64.4210 C.3   534  INH534      0.1790
     15  C13        3.2460   68.1950   65.2730 C.3   534  INH534      0.0820
     16  C14        4.6810   68.5070   64.8900 C.2   534  INH534     -0.0840
     17  C15        5.3310   69.5850   65.7310 C.3   534  INH534      0.0430
     18  H1         2.4600   68.4390   59.9220 H     534  INH534      0.1690
     19  N2         1.4890   66.4620   65.2690 N.4   534  INH534     -0.0620
     20  H14        1.7260   66.5810   66.2420 H     534  INH534      0.2760
     21  H13        0.5960   66.8910   65.0860 H     534  INH534      0.2760
     22  H12        1.4390   65.4780   65.0540 H     534  INH534      0.2760
@<TRIPOS>BOND
     1     2     1    2
     2    18     3    1
     3     1     3   ar
     4     1     4   ar
     5     3     7   ar
     6     8     7    1
     7     8     9    1
     8     7     6   ar
     9     4     5   ar
    10     9    10    1
    11     9    13    1
    12     6     5   ar
    13     6    14    1
    14    11    12    1
    15    10    16    2
    16    13    12    2
    17    13    14    1
    18    14    19    1
    19    14    15    1
    20    16    15    1
    21    16    17    1
    22    22    19    1
    23    21    19    1
    24    19    20    1
