@<TRIPOS>MOLECULE
/tmp/ewbell/vina_1gpk_1gpk_lig/vina/vina2.pdbqt
 22 24 0 0 0
SMALL
GASTEIGER

@<TRIPOS>ATOM
      1  C1        -0.3260   68.3310   62.6140 C.ar  534  INH534      0.2450
      2  O1        -1.5770   68.4910   62.6350 O.2   534  INH534     -0.2680
      3  N1         0.3650   68.0780   63.8010 N.ar  534  INH534     -0.3270
      4  C2         0.4840   68.3910   61.4050 C.ar  534  INH534      0.0750
      5  C3         1.8510   68.2110   61.4660 C.ar  534  INH534      0.0170
      6  C4         2.5550   67.9510   62.7090 C.ar  534  INH534      0.0050
      7  C5         1.7600   67.8840   63.8980 C.ar  534  INH534      0.0220
      8  C6         2.3160   67.6250   65.2780 C.3   534  INH534      0.0700
      9  C7         3.8870   67.3640   65.2870 C.3   534  INH534      0.0450
     10  C8         4.2320   65.8800   65.0450 C.2   534  INH534     -0.0150
     11  C9         5.9770   69.7190   65.6850 C.3   534  INH534      0.0360
     12  C10        5.4620   69.1830   64.3840 C.2   534  INH534     -0.0250
     13  C11        4.5800   68.2100   64.1940 C.2   534  INH534     -0.0360
     14  C12        4.1320   67.7520   62.7860 C.3   534  INH534      0.1790
     15  C13        4.5040   66.2560   62.5660 C.3   534  INH534      0.0820
     16  C14        4.5110   65.3810   63.8070 C.2   534  INH534     -0.0840
     17  C15        4.8600   63.9320   63.5470 C.3   534  INH534      0.0430
     18  H1        -0.1680   68.0310   64.6460 H     534  INH534      0.1690
     19  N2         4.7910   68.5560   61.7190 N.4   534  INH534     -0.0620
     20  H14        4.8090   69.5270   61.9930 H     534  INH534      0.2760
     21  H13        5.7350   68.2280   61.5850 H     534  INH534      0.2760
     22  H12        4.2760   68.4600   60.8580 H     534  INH534      0.2760
@<TRIPOS>BOND
     1    22    19    1
     2     4     5   ar
     3     4     1   ar
     4     5     6   ar
     5    21    19    1
     6    19    20    1
     7    19    14    1
     8    15    14    1
     9    15    16    1
    10     1     2    2
    11     1     3   ar
    12     6    14    1
    13     6     7   ar
    14    14    13    1
    15    17    16    1
    16     3     7   ar
    17     3    18    1
    18    16    10    2
    19     7     8    1
    20    13    12    2
    21    13     9    1
    22    12    11    1
    23    10     9    1
    24     8     9    1
