@<TRIPOS>MOLECULE
/tmp/ewbell/vina_1gpk_1gpk_lig/vina/vina3.pdbqt
 22 24 0 0 0
SMALL
GASTEIGER

@<TRIPOS>ATOM
      1  C1         4.5950   63.2150   63.2550 C.ar  534  INH534      0.2450
      2  O1         5.1060   62.1790   62.7500 O.2   534  INH534     -0.2680
      3  N1         4.9190   64.4730   62.7420 N.ar  534  INH534     -0.3270
      4  C2         3.6580   63.2040   64.3700 C.ar  534  INH534      0.0750
      5  C3         3.1470   64.3840   64.8690 C.ar  534  INH534      0.0170
      6  C4         3.4960   65.6850   64.3260 C.ar  534  INH534      0.0050
      7  C5         4.4100   65.6980   63.2250 C.ar  534  INH534      0.0220
      8  C6         4.8890   66.9530   62.5340 C.3   534  INH534      0.0700
      9  C7         4.2240   68.2820   63.1070 C.3   534  INH534      0.0450
     10  C8         2.8820   68.6060   62.4160 C.2   534  INH534     -0.0150
     11  C9         5.5580   69.9470   65.4570 C.3   534  INH534      0.0360
     12  C10        4.5310   68.8630   65.5910 C.2   534  INH534     -0.0250
     13  C11        3.9700   68.1460   64.6260 C.2   534  INH534     -0.0360
     14  C12        2.9160   67.0490   64.9050 C.3   534  INH534      0.1790
     15  C13        1.5720   67.4090   64.2080 C.3   534  INH534      0.0820
     16  C14        1.6810   68.2070   62.9200 C.2   534  INH534     -0.0840
     17  C15        0.3520   68.5210   62.2660 C.3   534  INH534      0.0430
     18  H1         5.5600   64.5100   61.9750 H     534  INH534      0.1690
     19  N2         2.6580   66.9050   66.3660 N.4   534  INH534     -0.0620
     20  H14        3.0290   66.0240   66.6870 H     534  INH534      0.2760
     21  H13        3.1060   67.6590   66.8620 H     534  INH534      0.2760
     22  H12        1.6650   66.9330   66.5360 H     534  INH534      0.2760
@<TRIPOS>BOND
     1    18     3    1
     2    17    16    1
     3    10    16    2
     4    10     9    1
     5     8     9    1
     6     8     7    1
     7     3     7   ar
     8     3     1   ar
     9     2     1    2
    10    16    15    1
    11     9    13    1
    12     7     6   ar
    13     1     4   ar
    14    15    14    1
    15     6     5   ar
    16     6    14    1
    17     4     5   ar
    18    13    14    1
    19    13    12    2
    20    14    19    1
    21    11    12    1
    22    19    22    1
    23    19    20    1
    24    19    21    1
