@<TRIPOS>MOLECULE
/tmp/ewbell/vina_1gpk_1gpk_lig/vina/vina5.pdbqt
 22 24 0 0 0
SMALL
GASTEIGER

@<TRIPOS>ATOM
      1  C1         1.7740   68.2810   60.6690 C.ar  534  INH534      0.2450
      2  O1         1.1040   68.3790   59.6050 O.2   534  INH534     -0.2680
      3  N1         1.1330   67.9830   61.8730 N.ar  534  INH534     -0.3270
      4  C2         3.2180   68.4600   60.7430 C.ar  534  INH534      0.0750
      5  C3         3.8780   68.3420   61.9490 C.ar  534  INH534      0.0170
      6  C4         3.1960   68.0350   63.1930 C.ar  534  INH534      0.0050
      7  C5         1.7780   67.8500   63.1210 C.ar  534  INH534      0.0220
      8  C6         0.9030   67.5270   64.3090 C.3   534  INH534      0.0700
      9  C7         1.7190   67.3410   65.6640 C.3   534  INH534      0.0450
     10  C8         2.2240   65.8940   65.8450 C.2   534  INH534     -0.0150
     11  C9         2.2530   69.7620   67.6450 C.3   534  INH534      0.0360
     12  C10        3.1470   69.2900   66.5390 C.2   534  INH534     -0.0250
     13  C11        2.9390   68.2900   65.6910 C.2   534  INH534     -0.0360
     14  C12        3.9530   67.9070   64.5870 C.3   534  INH534      0.1790
     15  C13        4.4540   66.4490   64.8040 C.3   534  INH534      0.0820
     16  C14        3.4670   65.4940   65.4530 C.2   534  INH534     -0.0840
     17  C15        3.9870   64.0830   65.6300 C.3   534  INH534      0.0430
     18  H1         0.1410   67.8540   61.8500 H     534  INH534      0.1690
     19  N2         5.1370   68.8110   64.6000 N.4   534  INH534     -0.0620
     20  H14        5.9800   68.2620   64.5360 H     534  INH534      0.2760
     21  H13        5.0860   69.4420   63.8160 H     534  INH534      0.2760
     22  H12        5.1460   69.3410   65.4580 H     534  INH534      0.2760
@<TRIPOS>BOND
     1     2     1    2
     2     1     4   ar
     3     1     3   ar
     4     4     5   ar
     5    18     3    1
     6     3     7   ar
     7     5     6   ar
     8     7     6   ar
     9     7     8    1
    10     6    14    1
    11    21    19    1
    12     8     9    1
    13    20    19    1
    14    14    19    1
    15    14    15    1
    16    14    13    1
    17    19    22    1
    18    15    16    1
    19    16    17    1
    20    16    10    2
    21     9    13    1
    22     9    10    1
    23    13    12    2
    24    12    11    1
