@<TRIPOS>MOLECULE
/tmp/ewbell/vina_1gpk_1gpk_lig/vina/vina4.pdbqt
 22 24 0 0 0
SMALL
GASTEIGER

@<TRIPOS>ATOM
      1  C1         3.7410   63.3710   64.6010 C.ar  534  INH534      0.2450
      2  O1         3.6130   62.2290   65.1160 O.2   534  INH534     -0.2680
      3  N1         2.9890   64.4440   65.0840 N.ar  534  INH534     -0.3270
      4  C2         4.6470   63.6730   63.5010 C.ar  534  INH534      0.0750
      5  C3         4.7270   64.9510   62.9870 C.ar  534  INH534      0.0170
      6  C4         3.9350   66.0560   63.4990 C.ar  534  INH534      0.0050
      7  C5         3.0500   65.7630   64.5860 C.ar  534  INH534      0.0220
      8  C6         2.1500   66.7820   65.2460 C.3   534  INH534      0.0700
      9  C7         2.3230   68.2520   64.6580 C.3   534  INH534      0.0450
     10  C8         3.4540   69.0310   65.3630 C.2   534  INH534     -0.0150
     11  C9         0.5440   69.3190   62.2570 C.3   534  INH534      0.0360
     12  C10        1.8860   68.6590   62.1590 C.2   534  INH534     -0.0250
     13  C11        2.6410   68.1940   63.1460 C.2   534  INH534     -0.0360
     14  C12        4.0170   67.5290   62.9040 C.3   534  INH534      0.1790
     15  C13        5.1370   68.3440   63.6150 C.3   534  INH534      0.0820
     16  C14        4.7300   69.0690   64.8850 C.2   534  INH534     -0.0840
     17  C15        5.8520   69.8340   65.5540 C.3   534  INH534      0.0430
     18  H1         2.3600   64.2650   65.8410 H     534  INH534      0.1690
     19  N2         4.3390   67.4660   61.4510 N.4   534  INH534     -0.0620
     20  H14        3.6110   66.9650   60.9660 H     534  INH534      0.2760
     21  H13        4.4080   68.4010   61.0810 H     534  INH534      0.2760
     22  H12        5.2180   66.9880   61.3220 H     534  INH534      0.2760
@<TRIPOS>BOND
     1    20    19    1
     2    21    19    1
     3    22    19    1
     4    19    14    1
     5    12    11    1
     6    12    13    2
     7    14    13    1
     8    14     6    1
     9    14    15    1
    10     5     6   ar
    11     5     4   ar
    12    13     9    1
    13     6     7   ar
    14     4     1   ar
    15    15    16    1
    16     7     3   ar
    17     7     8    1
    18     1     3   ar
    19     1     2    2
    20     9     8    1
    21     9    10    1
    22    16    10    2
    23    16    17    1
    24     3    18    1
