@<TRIPOS>MOLECULE
./ligand/4ubp_lig.pdb
 9 8 0 0 0
SMALL
GASTEIGER

@<TRIPOS>ATOM
      1  C1        28.7920   70.4290   75.7530 C.3   801  INH801     -0.0189
      2  C2        29.3160   71.3430   74.6690 C.2   801  INH801      0.0523
      3  O1        30.0940   70.8880   73.8170 O.2   801  INH801     -0.5425
      4  N1        28.9430   72.6160   74.6960 N.am  801  INH801     -0.3113
      5  O2        29.3460   73.3980   73.6140 O.3   801  INH801     -0.4230
      6  H1        28.1210   70.9940   76.4160 H     801  INH801      0.0296
      7  H2        29.6350   70.0320   76.3370 H     801  INH801      0.0296
      8  H3        28.2390   69.5960   75.2950 H     801  INH801      0.0296
      9  H4        28.4040   72.9930   75.4490 H     801  INH801      0.1545
@<TRIPOS>BOND
     1     5     4    1
     2     3     2    2
     3     2     4   am
     4     2     1    1
     5     4     9    1
     6     8     1    1
     7     1     7    1
     8     1     6    1
