@<TRIPOS>MOLECULE
/tmp/ewbell/vina_4ubp_4ubp_lig/vina/vina4.pdbqt
 7 6 0 0 0
SMALL
GASTEIGER

@<TRIPOS>ATOM
      1  C1        30.8710   76.3410   80.2810 C.3   801  INH801      0.1190
      2  C2        31.3530   77.7060   79.8440 C.2   801  INH801      0.2360
      3  O1        30.6740   78.7050   80.1240 O.2   801  INH801     -0.2720
      4  N1        32.4770   77.7720   79.1430 N.am  801  INH801     -0.2380
      5  H4        33.0130   76.9570   78.9260 H     801  INH801      0.1970
      6  O2        32.8690   79.0440   78.7270 O.3   801  INH801     -0.2870
      7  H         32.1110   79.5020   78.3310 H     801  INH801      0.2440
@<TRIPOS>BOND
     1     7     6    1
     2     6     4    1
     3     5     4    1
     4     4     2   am
     5     2     3    2
     6     2     1    1
