@<TRIPOS>MOLECULE
/tmp/ewbell/vina_4ubp_4ubp_lig/vina/vina3.pdbqt
 7 6 0 0 0
SMALL
GASTEIGER

@<TRIPOS>ATOM
      1  C1        34.0700   78.2430   78.2130 C.3   801  INH801      0.1190
      2  C2        32.7830   78.9270   78.6150 C.2   801  INH801      0.2360
      3  O1        32.5240   80.0500   78.1560 O.2   801  INH801     -0.2720
      4  N1        31.9910   78.3020   79.4770 N.am  801  INH801     -0.2380
      5  H4        32.2140   77.3970   79.8380 H     801  INH801      0.1970
      6  O2        30.8320   78.9810   79.8520 O.3   801  INH801     -0.2870
      7  H         30.0600   78.5430   79.4600 H     801  INH801      0.2440
@<TRIPOS>BOND
     1     3     2    2
     2     1     2    1
     3     2     4   am
     4     7     6    1
     5     4     5    1
     6     4     6    1
