@<TRIPOS>MOLECULE
/tmp/ewbell/vina_4ubp_4ubp_lig/vina/vina1.pdbqt
 7 6 0 0 0
SMALL
GASTEIGER

@<TRIPOS>ATOM
      1  C1        32.2420   77.7110   79.6700 C.3   801  INH801      0.1190
      2  C2        33.1630   78.4020   78.6900 C.2   801  INH801      0.2360
      3  O1        34.2180   77.8430   78.3530 O.2   801  INH801     -0.2720
      4  N1        32.8160   79.6050   78.2530 N.am  801  INH801     -0.2380
      5  H4        31.9620   80.0430   78.5350 H     801  INH801      0.1970
      6  O2        33.7090   80.2250   77.3810 O.3   801  INH801     -0.2870
      7  H         33.7080   81.1820   77.5430 H     801  INH801      0.2440
@<TRIPOS>BOND
     1     6     7    1
     2     6     4    1
     3     4     5    1
     4     4     2   am
     5     3     2    2
     6     2     1    1
