@<TRIPOS>MOLECULE
/tmp/ewbell/vina_4ubp_4ubp_lig/vina/vina5.pdbqt
 7 6 0 0 0
SMALL
GASTEIGER

@<TRIPOS>ATOM
      1  C1        29.6880   67.8990   75.2560 C.3   801  INH801      0.1190
      2  C2        31.1650   67.9160   75.5800 C.2   801  INH801      0.2360
      3  O1        31.6100   68.7980   76.3300 O.2   801  INH801     -0.2720
      4  N1        31.9350   66.9950   75.0160 N.am  801  INH801     -0.2380
      5  H4        31.5610   66.2900   74.4130 H     801  INH801      0.1970
      6  O2        33.2960   67.0670   75.3110 O.3   801  INH801     -0.2870
      7  H         33.7450   67.6030   74.6370 H     801  INH801      0.2440
@<TRIPOS>BOND
     1     5     4    1
     2     7     6    1
     3     4     6    1
     4     4     2   am
     5     1     2    1
     6     2     3    2
