@<TRIPOS>MOLECULE
/tmp/ewbell/vina_4ubp_4ubp_lig/vina/vina2.pdbqt
 7 6 0 0 0
SMALL
GASTEIGER

@<TRIPOS>ATOM
      1  C1        29.9570   68.9710   75.2710 C.3   801  INH801      0.1190
      2  C2        29.5420   70.4240   75.2230 C.2   801  INH801      0.2360
      3  O1        29.4970   71.0750   76.2770 O.2   801  INH801     -0.2720
      4  N1        29.2080   70.9360   74.0460 N.am  801  INH801     -0.2380
      5  H4        29.2490   70.3970   73.2040 H     801  INH801      0.1970
      6  O2        28.7950   72.2670   74.0490 O.3   801  INH801     -0.2870
      7  H         29.1120   72.7060   73.2430 H     801  INH801      0.2440
@<TRIPOS>BOND
     1     5     4    1
     2     7     6    1
     3     4     6    1
     4     4     2   am
     5     2     1    1
     6     2     3    2
