@<TRIPOS>MOLECULE
./ligand/2v7u_lig.pdb
 50 52 0 0 0
SMALL
GASTEIGER

@<TRIPOS>ATOM
      1  N1        34.1080   13.1400   66.6420 N.4   1759  INH1759     0.2289
      2  C1        34.8100   12.0190   67.2910 C.3   1759  INH1759     0.0793
      3  C2        33.7810   11.0170   67.8340 C.2   1759  INH1759     0.4026
      4  O1        32.6520   11.3760   68.2100 O.co2 1759  INH1759    -0.2400
      5  C3        35.6640   12.5490   68.4470 C.3   1759  INH1759     0.0092
      6  C4        36.7570   11.5510   68.8480 C.3   1759  INH1759    -0.0095
      7  O2        34.0690    9.8190   67.8910 O.co2 1759  INH1759    -0.2400
      8  S1        38.1990   11.4860   67.7330 S.3   1759  INH1759    -0.2086
      9  C5        37.7550   10.0600   66.7760 C.3   1759  INH1759    -0.0267
     10  C6        39.2480   10.8280   69.0530 C.3   1759  INH1759     0.0137
     11  C7        40.7880   10.7860   68.8880 C.3   1759  INH1759     0.0979
     12  O3        41.0940    9.9750   67.7430 O.3   1759  INH1759    -0.3472
     13  C8        41.3750   12.1840   68.6840 C.3   1759  INH1759     0.1121
     14  O4        42.4140   12.3720   69.6410 O.3   1759  INH1759    -0.3865
     15  C9        41.9440   12.1660   67.2790 C.3   1759  INH1759     0.1285
     16  O5        43.2580   12.7420   67.2450 O.3   1759  INH1759    -0.3847
     17  C10       42.0560   10.6820   66.9510 C.3   1759  INH1759     0.1664
     18  N2        41.7160   10.4330   65.5370 N.ar  1759  INH1759    -0.2877
     19  C11       40.6590   10.8760   64.8410 C.ar  1759  INH1759     0.0999
     20  N3        40.7440   10.4300   63.5930 N.ar  1759  INH1759    -0.2346
     21  C12       41.8530    9.6950   63.5050 C.ar  1759  INH1759     0.1287
     22  C13       42.4380    8.9880   62.4700 C.3   1759  INH1759     0.2004
     23  N4        41.8760    8.9430   61.2340 N.3   1759  INH1759    -0.2985
     24  N5        43.6370    8.3300   62.7630 N.2   1759  INH1759    -0.2420
     25  C14       44.2240    8.3640   64.0330 C.2   1759  INH1759     0.1049
     26  N6        43.6380    9.0440   64.9960 N.pl3 1759  INH1759    -0.1840
     27  C15       42.4780    9.7040   64.7490 C.ar  1759  INH1759     0.1528
     28  H1        34.7830   13.7980   66.2850 H     1759  INH1759     0.2002
     29  H2        33.5140   13.5990   67.3150 H     1759  INH1759     0.2002
     30  H3        33.5460   12.7900   65.8820 H     1759  INH1759     0.2002
     31  H4        35.4580   11.5180   66.5570 H     1759  INH1759     0.0970
     32  H5        35.0140   12.7340   69.3150 H     1759  INH1759     0.0333
     33  H6        36.1380   13.4920   68.1370 H     1759  INH1759     0.0333
     34  H7        36.3060   10.5480   68.8800 H     1759  INH1759     0.0371
     35  H8        37.1150   11.8240   69.8520 H     1759  INH1759     0.0371
     36  H9        38.5360    9.8630   66.0270 H     1759  INH1759     0.0333
     37  H10       36.7970   10.2430   66.2670 H     1759  INH1759     0.0333
     38  H11       37.6570    9.1890   67.4400 H     1759  INH1759     0.0333
     39  H12       38.9220    9.7920   69.2280 H     1759  INH1759     0.0395
     40  H13       39.0440   11.4330   69.9490 H     1759  INH1759     0.0395
     41  H14       41.2350   10.3390   69.7880 H     1759  INH1759     0.0631
     42  H15       40.6080   12.9650   68.7910 H     1759  INH1759     0.0647
     43  H16       42.7930   13.2360   69.5310 H     1759  INH1759     0.2100
     44  H17       41.2810   12.6900   66.5750 H     1759  INH1759     0.0665
     45  H18       43.5910   12.7190   66.3560 H     1759  INH1759     0.2101
     46  H19       43.0740   10.3260   67.1650 H     1759  INH1759     0.0866
     47  H20       39.8590   11.5010   65.2360 H     1759  INH1759     0.1030
     48  H21       42.3320    8.4090   60.4800 H     1759  INH1759     0.1209
     49  H22       40.9940    9.4430   61.0510 H     1759  INH1759     0.1209
     50  H23       45.1520    7.8360   64.2220 H     1759  INH1759     0.1015
@<TRIPOS>BOND
     1    48    23    1
     2    49    23    1
     3    23    22    1
     4    22    24    1
     5    22    21    1
     6    24    25    2
     7    21    20   ar
     8    21    27   ar
     9    20    19   ar
    10    25    50    1
    11    25    26    1
    12    27    26    1
    13    27    18   ar
    14    19    47    1
    15    19    18   ar
    16    18    17    1
    17    30     1    1
    18    36     9    1
    19    37     9    1
    20    28     1    1
    21    45    16    1
    22    31     2    1
    23    44    15    1
    24     1     2    1
    25     1    29    1
    26     9    38    1
    27     9     8    1
    28    17    46    1
    29    17    15    1
    30    17    12    1
    31    16    15    1
    32    15    13    1
    33     2     3    1
    34     2     5    1
    35     8     6    1
    36     8    10    1
    37    12    11    1
    38     3     7   ar
    39     3     4   ar
    40    33     5    1
    41     5     6    1
    42     5    32    1
    43    13    42    1
    44    13    11    1
    45    13    14    1
    46     6    34    1
    47     6    35    1
    48    11    10    1
    49    11    41    1
    50    10    39    1
    51    10    40    1
    52    43    14    1
