@<TRIPOS>MOLECULE
/tmp/ewbell/vina_2v7u_2v7u_lig/vina/vina1.pdbqt
 38 40 0 0 0
SMALL
GASTEIGER

@<TRIPOS>ATOM
      1  C7        40.7380   10.8940   69.1000 C.3   1759  INH1759     0.1640
      2  O3        41.0130   10.0630   67.9610 O.3   1759  INH1759    -0.3550
      3  C8        41.3950   12.2610   68.8940 C.3   1759  INH1759     0.1800
      4  C9        41.9730   12.2070   67.4930 C.3   1759  INH1759     0.1980
      5  C10       42.0140   10.7180   67.1740 C.3   1759  INH1759     0.2620
      6  N2        41.6740   10.4780   65.7580 N.pl3 1759  INH1759    -0.2970
      7  C15       42.4730    9.8210   64.9450 C.2   1759  INH1759     0.1380
      8  C12       41.8330    9.7980   63.7080 C.2   1759  INH1759     0.1070
      9  N6        43.6780    9.2360   65.1630 N.pl3 1759  INH1759    -0.3370
     10  N3        40.6790   10.4530   63.8260 N.pl3 1759  INH1759    -0.3490
     11  C13       42.4510    9.1560   62.6500 C.3   1759  INH1759     0.6860
     12  C11       40.5800   10.8640   65.0850 C.3   1759  INH1759     0.1870
     13  H3        39.9960   10.6110   63.0850 H     1759  INH1759     0.1660
     14  N4        41.8780    9.1000   61.4200 N.3   1759  INH1759    -0.0950
     15  N5        43.6960    8.5740   62.9140 N.3   1759  INH1759    -0.3520
     16  H21       42.3590    8.6160   60.6480 H     1759  INH1759     0.2600
     17  H22       40.9610    9.5430   61.2590 H     1759  INH1759     0.2600
     18  C14       44.2960    8.6190   64.1770 C.3   1759  INH1759     0.1790
     19  H5        44.1860    8.0990   62.1550 H     1759  INH1759     0.1620
     20  H         44.0900    9.2730   66.0560 H     1759  INH1759     0.1680
     21  O5        43.3140   12.7180   67.4670 O.3   1759  INH1759    -0.3880
     22  H18       43.6840   12.6800   68.3410 H     1759  INH1759     0.2100
     23  C6        39.2010   11.0130   69.2520 C.3   1759  INH1759     0.0970
     24  S1        38.1810   11.5870   67.8720 S.3   1759  INH1759    -0.2210
     25  C5        37.7970   10.1100   66.9680 C.3   1759  INH1759     0.0780
     26  C4        36.7030   11.6720   68.9380 C.3   1759  INH1759     0.0650
     27  C3        35.6290   12.6710   68.4900 C.3   1759  INH1759     0.0530
     28  C1        34.7540   12.0970   67.3720 C.3   1759  INH1759     0.2810
     29  N1        33.8820   13.1570   66.8350 N.4   1759  INH1759    -0.0650
     30  H3        33.2750   13.4950   67.5650 H     1759  INH1759     0.2750
     31  H1        33.3260   12.7850   66.0810 H     1759  INH1759     0.2750
     32  H2        34.4490   13.9160   66.4920 H     1759  INH1759     0.2750
     33  C2        33.8890   10.9590   67.9330 C.2   1759  INH1759     0.1710
     34  O2        34.1100    9.7970   67.5840 O.2   1759  INH1759    -0.6480
     35  O1        32.9560   11.1750   68.7260 O.3   1759  INH1759    -0.7750
     36  H         32.7680   10.5600   69.4070 H     1759  INH1759     0.1670
     37  O4        42.4340   12.4020   69.8580 O.3   1759  INH1759    -0.3900
     38  H16       43.2150   11.9590   69.5490 H     1759  INH1759     0.2100
@<TRIPOS>BOND
     1    16    14    1
     2    17    14    1
     3    14    11    1
     4    19    15    1
     5    11    15    1
     6    11     8    1
     7    15    18    1
     8    13    10    1
     9     8    10    1
    10     8     7    2
    11    10    12    1
    12    18     9    1
    13     7     9    1
    14     7     6    1
    15    12     6    1
    16     9    20    1
    17     6     5    1
    18    31    29    1
    19    32    29    1
    20    29    28    1
    21    29    30    1
    22    25    24    1
    23     5     4    1
    24     5     2    1
    25    28    33    1
    26    28    27    1
    27    21     4    1
    28    21    22    1
    29     4     3    1
    30    34    33    2
    31    24    26    1
    32    24    23    1
    33    33    35    1
    34     2     1    1
    35    27    26    1
    36    35    36    1
    37     3     1    1
    38     3    37    1
    39     1    23    1
    40    38    37    1
