@<TRIPOS>MOLECULE
/tmp/ewbell/vina_2v7u_2v7u_lig/vina/vina3.pdbqt
 38 40 0 0 0
SMALL
GASTEIGER

@<TRIPOS>ATOM
      1  C7        40.1170   11.2410   68.9350 C.3   1759  INH1759     0.1640
      2  O3        40.3210   10.3090   67.8610 O.3   1759  INH1759    -0.3550
      3  C8        41.1120   12.3950   68.7930 C.3   1759  INH1759     0.1800
      4  C9        41.8330   12.1290   67.4860 C.3   1759  INH1759     0.1980
      5  C10       41.5450   10.6590   67.2050 C.3   1759  INH1759     0.2620
      6  N2        41.3390   10.4350   65.7610 N.pl3 1759  INH1759    -0.2970
      7  C15       42.2440    9.8500   65.0050 C.2   1759  INH1759     0.1380
      8  C12       41.7120    9.8180   63.7180 C.2   1759  INH1759     0.1070
      9  N6        43.4630    9.3370   65.3120 N.pl3 1759  INH1759    -0.3370
     10  N3        40.5110   10.3960   63.7520 N.pl3 1759  INH1759    -0.3490
     11  C13       42.4560    9.2440   62.7030 C.3   1759  INH1759     0.6860
     12  C11       40.2820   10.7680   65.0060 C.3   1759  INH1759     0.1870
     13  H3        39.8830   10.5290   62.9590 H     1759  INH1759     0.1660
     14  N4        41.9910    9.1840   61.4280 N.3   1759  INH1759    -0.0950
     15  N5        43.7100    8.7360   63.0590 N.3   1759  INH1759    -0.3520
     16  H21       42.5650    8.7510   60.6910 H     1759  INH1759     0.2600
     17  H22       41.0650    9.5720   61.2000 H     1759  INH1759     0.2600
     18  C14       44.1990    8.7870   64.3700 C.3   1759  INH1759     0.1790
     19  H5        44.2910    8.3120   62.3350 H     1759  INH1759     0.1620
     20  H         43.7960    9.3780   66.2370 H     1759  INH1759     0.1680
     21  O5        43.2500   12.2970   67.6330 O.3   1759  INH1759    -0.3880
     22  H18       43.5530   12.9690   67.0340 H     1759  INH1759     0.2100
     23  C6        38.6500   11.7360   68.8730 C.3   1759  INH1759     0.0970
     24  S1        37.5140   11.0930   67.6210 S.3   1759  INH1759    -0.2210
     25  C5        36.7780    9.6720   68.3870 C.3   1759  INH1759     0.0780
     26  C4        36.2570   12.3420   68.0520 C.3   1759  INH1759     0.0650
     27  C3        35.5030   12.9500   66.8630 C.3   1759  INH1759     0.0530
     28  C1        35.8240   14.4370   66.6890 C.3   1759  INH1759     0.2810
     29  N1        36.1900   15.0180   67.9930 N.4   1759  INH1759    -0.0650
     30  H3        37.1940   15.0740   68.0670 H     1759  INH1759     0.2750
     31  H1        35.8310   14.4360   68.7330 H     1759  INH1759     0.2750
     32  H2        35.7960   15.9430   68.0710 H     1759  INH1759     0.2750
     33  C2        34.5910   15.1640   66.1340 C.2   1759  INH1759     0.1710
     34  O2        33.6960   14.5150   65.5880 O.2   1759  INH1759    -0.6480
     35  O1        34.4700   16.3990   66.2060 O.3   1759  INH1759    -0.7750
     36  H         33.8700   16.7770   66.8190 H     1759  INH1759     0.1670
     37  O4        42.0230   12.3310   69.8870 O.3   1759  INH1759    -0.3900
     38  H16       41.9510   11.4840   70.3100 H     1759  INH1759     0.2100
@<TRIPOS>BOND
     1    16    14    1
     2    17    14    1
     3    14    11    1
     4    19    15    1
     5    11    15    1
     6    11     8    1
     7    13    10    1
     8    15    18    1
     9     8    10    1
    10     8     7    2
    11    10    12    1
    12    18     9    1
    13     7     9    1
    14     7     6    1
    15    12     6    1
    16     9    20    1
    17    34    33    2
    18     6     5    1
    19    33    35    1
    20    33    28    1
    21    35    36    1
    22    28    27    1
    23    28    29    1
    24    27    26    1
    25    22    21    1
    26     5     4    1
    27     5     2    1
    28     4    21    1
    29     4     3    1
    30    24    26    1
    31    24    25    1
    32    24    23    1
    33     2     1    1
    34    29    30    1
    35    29    32    1
    36    29    31    1
    37     3     1    1
    38     3    37    1
    39    23     1    1
    40    37    38    1
