@<TRIPOS>MOLECULE
/tmp/ewbell/vina_2v7u_2v7u_lig/vina/vina5.pdbqt
 38 40 0 0 0
SMALL
GASTEIGER

@<TRIPOS>ATOM
      1  C7        30.4160   18.6360   54.8240 C.3   1759  INH1759     0.1640
      2  O3        30.3930   18.1250   56.1650 O.3   1759  INH1759    -0.3550
      3  C8        28.9810   18.8960   54.3610 C.3   1759  INH1759     0.1800
      4  C9        28.1220   18.6120   55.5770 C.3   1759  INH1759     0.1980
      5  C10       29.0350   17.7960   56.4850 C.3   1759  INH1759     0.2620
      6  N2        28.8260   18.1590   57.8990 N.pl3 1759  INH1759    -0.2970
      7  C15       29.1520   19.3420   58.3770 C.2   1759  INH1759     0.1380
      8  C12       28.8200   19.3200   59.7280 C.2   1759  INH1759     0.1070
      9  N6        29.6910   20.4290   57.7670 N.pl3 1759  INH1759    -0.3370
     10  N3        28.3170   18.1180   60.0120 N.pl3 1759  INH1759    -0.3490
     11  C13       29.0520   20.4500   60.4910 C.3   1759  INH1759     0.6860
     12  C11       28.3150   17.4110   58.8880 C.3   1759  INH1759     0.1870
     13  H3        27.9920   17.8000   60.9250 H     1759  INH1759     0.1660
     14  N4        28.7500   20.4890   61.8150 N.3   1759  INH1759    -0.0950
     15  N5        29.6160   21.5450   59.8280 N.3   1759  INH1759    -0.3520
     16  H21       28.9320   21.3440   62.3600 H     1759  INH1759     0.2600
     17  H22       28.3390   19.6630   62.2730 H     1759  INH1759     0.2600
     18  C14       29.9270   21.5210   58.4630 C.3   1759  INH1759     0.1790
     19  H5        29.8080   22.3940   60.3590 H     1759  INH1759     0.1620
     20  H         29.9040   20.4010   56.8070 H     1759  INH1759     0.1680
     21  O5        26.9840   17.8080   55.2320 O.3   1759  INH1759    -0.3880
     22  H18       26.2550   18.0320   55.7970 H     1759  INH1759     0.2100
     23  C6        31.2660   19.9310   54.8140 C.3   1759  INH1759     0.0970
     24  S1        32.7430   20.0550   53.7760 S.3   1759  INH1759    -0.2210
     25  C5        34.0090   20.6190   54.8830 C.3   1759  INH1759     0.0780
     26  C4        33.0320   18.2580   53.8920 C.3   1759  INH1759     0.0650
     27  C3        34.4780   17.8100   53.6470 C.3   1759  INH1759     0.0530
     28  C1        34.6530   17.2010   52.2530 C.3   1759  INH1759     0.2810
     29  N1        35.3040   15.8840   52.3680 N.4   1759  INH1759    -0.0650
     30  H3        34.6500   15.2170   52.7460 H     1759  INH1759     0.2750
     31  H1        36.1020   15.9560   52.9790 H     1759  INH1759     0.2750
     32  H2        35.6060   15.5780   51.4560 H     1759  INH1759     0.2750
     33  C2        35.5250   18.1290   51.3960 C.2   1759  INH1759     0.1710
     34  O2        35.1620   19.2910   51.1950 O.2   1759  INH1759    -0.6480
     35  O1        36.5890   17.7410   50.8830 O.3   1759  INH1759    -0.7750
     36  H         36.5890   17.0030   50.3060 H     1759  INH1759     0.1670
     37  O4        28.6810   17.9780   53.3130 O.3   1759  INH1759    -0.3900
     38  H16       29.4010   17.3680   53.2100 H     1759  INH1759     0.2100
@<TRIPOS>BOND
     1    36    35    1
     2    35    33    1
     3    34    33    2
     4    33    28    1
     5    32    29    1
     6    28    29    1
     7    28    27    1
     8    29    30    1
     9    29    31    1
    10    38    37    1
    11    37     3    1
    12    27    26    1
    13    24    26    1
    14    24    23    1
    15    24    25    1
    16     3     1    1
    17     3     4    1
    18    23     1    1
    19     1     2    1
    20    21     4    1
    21    21    22    1
    22     4     5    1
    23     2     5    1
    24     5     6    1
    25    20     9    1
    26     9     7    1
    27     9    18    1
    28     6     7    1
    29     6    12    1
    30     7     8    2
    31    18    15    1
    32    12    10    1
    33     8    10    1
    34     8    11    1
    35    15    19    1
    36    15    11    1
    37    10    13    1
    38    11    14    1
    39    14    17    1
    40    14    16    1
