@<TRIPOS>MOLECULE
/tmp/ewbell/vina_2v7u_2v7u_lig/vina/vina2.pdbqt
 38 40 0 0 0
SMALL
GASTEIGER

@<TRIPOS>ATOM
      1  C7        40.1660   11.5290   68.6300 C.3   1759  INH1759     0.1640
      2  O3        40.3340   10.5290   67.6130 O.3   1759  INH1759    -0.3550
      3  C8        41.2540   12.5920   68.4720 C.3   1759  INH1759     0.1800
      4  C9        41.9990   12.2030   67.2110 C.3   1759  INH1759     0.1980
      5  C10       41.6060   10.7470   66.9910 C.3   1759  INH1759     0.2620
      6  N2        41.4360   10.4640   65.5520 N.pl3 1759  INH1759    -0.2970
      7  C15       42.3460    9.8210   64.8510 C.2   1759  INH1759     0.1380
      8  C12       41.8520    9.7460   63.5510 C.2   1759  INH1759     0.1070
      9  N6        43.5390    9.2870   65.2180 N.pl3 1759  INH1759    -0.3370
     10  N3        40.6680   10.3590   63.5220 N.pl3 1759  INH1759    -0.3490
     11  C13       42.6080    9.1050   62.5860 C.3   1759  INH1759     0.6860
     12  C11       40.4130   10.7930   64.7510 C.3   1759  INH1759     0.1870
     13  H3        40.0680   10.4740   62.7060 H     1759  INH1759     0.1660
     14  N4        42.1790    9.0020   61.3010 N.3   1759  INH1759    -0.0950
     15  N5        43.8350    8.5780   63.0030 N.3   1759  INH1759    -0.3520
     16  H21       42.7620    8.5190   60.6020 H     1759  INH1759     0.2600
     17  H22       41.2720    9.4050   61.0270 H     1759  INH1759     0.2600
     18  C14       44.2860    8.6740   64.3240 C.3   1759  INH1759     0.1790
     19  H5        44.4240    8.1060   62.3170 H     1759  INH1759     0.1620
     20  H         43.8450    9.3600   66.1510 H     1759  INH1759     0.1680
     21  O5        43.4190   12.2680   67.4070 O.3   1759  INH1759    -0.3880
     22  H18       43.7530   11.4000   67.6010 H     1759  INH1759     0.2100
     23  C6        38.7470   12.1320   68.4840 C.3   1759  INH1759     0.0970
     24  S1        37.2840   11.1600   68.9200 S.3   1759  INH1759    -0.2210
     25  C5        35.9720   12.3520   68.9880 C.3   1759  INH1759     0.0780
     26  C4        37.0830   10.6020   67.1950 C.3   1759  INH1759     0.0650
     27  C3        35.6370   10.5500   66.6880 C.3   1759  INH1759     0.0530
     28  C1        35.0330    9.1510   66.8430 C.3   1759  INH1759     0.2810
     29  N1        35.4890    8.5540   68.1100 N.4   1759  INH1759    -0.0650
     30  H3        34.8240    8.7610   68.8380 H     1759  INH1759     0.2750
     31  H1        36.3880    8.9380   68.3580 H     1759  INH1759     0.2750
     32  H2        35.5680    7.5550   68.0010 H     1759  INH1759     0.2750
     33  C2        35.4820    8.2680   65.6700 C.2   1759  INH1759     0.1710
     34  O2        35.8710    7.1180   65.8880 O.2   1759  INH1759    -0.6480
     35  O1        35.4800    8.6830   64.4990 O.3   1759  INH1759    -0.7750
     36  H         35.0520    9.4900   64.2880 H     1759  INH1759     0.1670
     37  O4        42.1160   12.5160   69.6050 O.3   1759  INH1759    -0.3900
     38  H16       42.5670   13.3440   69.7160 H     1759  INH1759     0.2100
@<TRIPOS>BOND
     1    16    14    1
     2    17    14    1
     3    14    11    1
     4    19    15    1
     5    11    15    1
     6    11     8    1
     7    13    10    1
     8    15    18    1
     9    10     8    1
    10    10    12    1
    11     8     7    2
    12    36    35    1
    13    18     9    1
    14    35    33    1
    15    12     6    1
    16     7     9    1
    17     7     6    1
    18     9    20    1
    19     6     5    1
    20    33    34    2
    21    33    28    1
    22    27    28    1
    23    27    26    1
    24    28    29    1
    25     5     4    1
    26     5     2    1
    27    26    24    1
    28     4    21    1
    29     4     3    1
    30    21    22    1
    31     2     1    1
    32    32    29    1
    33    29    31    1
    34    29    30    1
    35     3     1    1
    36     3    37    1
    37    23     1    1
    38    23    24    1
    39    24    25    1
    40    37    38    1
