@<TRIPOS>MOLECULE
/tmp/ewbell/vina_2v7u_2v7u_lig/vina/vina4.pdbqt
 38 40 0 0 0
SMALL
GASTEIGER

@<TRIPOS>ATOM
      1  C7        28.9650   20.9010   56.5240 C.3   1759  INH1759     0.1640
      2  O3        28.9110   19.7970   57.4410 O.3   1759  INH1759    -0.3550
      3  C8        28.4990   22.1710   57.2400 C.3   1759  INH1759     0.1800
      4  C9        28.2840   21.7490   58.6800 C.3   1759  INH1759     0.1980
      5  C10       28.1960   20.2290   58.6050 C.3   1759  INH1759     0.2620
      6  N2        28.8550   19.6100   59.7700 N.pl3 1759  INH1759    -0.2970
      7  C15       28.9260   18.3050   59.9260 C.2   1759  INH1759     0.1380
      8  C12       29.6030   18.0940   61.1250 C.2   1759  INH1759     0.1070
      9  N6        28.4820   17.2900   59.1420 N.pl3 1759  INH1759    -0.3370
     10  N3        29.9020   19.2830   61.6470 N.pl3 1759  INH1759    -0.3490
     11  C13       29.8310   16.7950   61.5420 C.3   1759  INH1759     0.6860
     12  C11       29.4480   20.2110   60.8120 C.3   1759  INH1759     0.1870
     13  H3        30.3890   19.4510   62.5270 H     1759  INH1759     0.1660
     14  N4        30.4840   16.5250   62.7020 N.3   1759  INH1759    -0.0950
     15  N5        29.3490   15.7780   60.7100 N.3   1759  INH1759    -0.3520
     16  H21       30.6410   15.5490   62.9900 H     1759  INH1759     0.2600
     17  H22       30.8220   17.2980   63.2930 H     1759  INH1759     0.2600
     18  C14       28.6780   16.0420   59.5100 C.3   1759  INH1759     0.1790
     19  H5        29.4910   14.8080   60.9890 H     1759  INH1759     0.1620
     20  H         28.0130   17.4880   58.2990 H     1759  INH1759     0.1680
     21  O5        27.0400   22.2540   59.1870 O.3   1759  INH1759    -0.3880
     22  H18       27.2010   23.0410   59.6930 H     1759  INH1759     0.2100
     23  C6        30.4210   21.0320   56.0110 C.3   1759  INH1759     0.0970
     24  S1        30.7830   20.9400   54.2400 S.3   1759  INH1759    -0.2210
     25  C5        32.4310   20.2880   54.1640 C.3   1759  INH1759     0.0780
     26  C4        29.8450   19.3840   54.0810 C.3   1759  INH1759     0.0650
     27  C3        30.6940   18.1070   54.0580 C.3   1759  INH1759     0.0530
     28  C1        29.8410   16.8560   54.2920 C.3   1759  INH1759     0.2810
     29  N1        28.6490   16.9030   53.4280 N.4   1759  INH1759    -0.0650
     30  H3        28.6270   17.7800   52.9320 H     1759  INH1759     0.2750
     31  H1        27.8200   16.8170   53.9940 H     1759  INH1759     0.2750
     32  H2        28.6850   16.1440   52.7650 H     1759  INH1759     0.2750
     33  C2        29.4040   16.8050   55.7630 C.2   1759  INH1759     0.1710
     34  O2        30.2230   16.4920   56.6310 O.2   1759  INH1759    -0.6480
     35  O1        28.2380   17.0580   56.1100 O.3   1759  INH1759    -0.7750
     36  H         27.5310   16.9250   55.5090 H     1759  INH1759     0.1670
     37  O4        27.2690   22.5840   56.6510 O.3   1759  INH1759    -0.3900
     38  H16       26.6080   21.9180   56.7990 H     1759  INH1759     0.2100
@<TRIPOS>BOND
     1    32    29    1
     2    30    29    1
     3    29    31    1
     4    29    28    1
     5    27    26    1
     6    27    28    1
     7    26    24    1
     8    25    24    1
     9    24    23    1
    10    28    33    1
    11    36    35    1
    12    33    35    1
    13    33    34    2
    14    23     1    1
    15     1     3    1
    16     1     2    1
    17    37    38    1
    18    37     3    1
    19     3     4    1
    20     2     5    1
    21    20     9    1
    22     5     4    1
    23     5     6    1
    24     4    21    1
    25     9    18    1
    26     9     7    1
    27    21    22    1
    28    18    15    1
    29     6     7    1
    30     6    12    1
    31     7     8    2
    32    15    19    1
    33    15    11    1
    34    12    10    1
    35     8    11    1
    36     8    10    1
    37    11    14    1
    38    10    13    1
    39    14    16    1
    40    14    17    1
