@<TRIPOS>MOLECULE
./ligand/1gyy_lig.pdb
 19 19 0 0 0
SMALL
GASTEIGER

@<TRIPOS>ATOM
      1  C1        12.1640    2.4570   -4.4480 C.ar  157  INH157     -0.0219
      2  C2        12.4360    1.4470   -3.4280 C.2   157  INH157     -0.0120
      3  C3        13.4880    1.3100   -2.6160 C.2   157  INH157      0.2116
      4  C4        14.6510    2.1900   -2.5690 C.2   157  INH157      0.4142
      5  O1        15.7850    1.7830   -2.4520 O.co2 157  INH157     -0.2380
      6  O2        14.3920    3.5010   -2.7030 O.co2 157  INH157     -0.2380
      7  C5        13.1750    2.9500   -5.2850 C.ar  157  INH157     -0.0511
      8  C6        12.9230    3.8910   -6.2590 C.ar  157  INH157     -0.0196
      9  C7        11.6220    4.3610   -6.4280 C.ar  157  INH157      0.1169
     10  O3        11.3540    5.3150   -7.3740 O.3   157  INH157     -0.5068
     11  C8        10.6230    3.8720   -5.6120 C.ar  157  INH157     -0.0196
     12  C9        10.8590    2.9250   -4.6370 C.ar  157  INH157     -0.0511
     13  F1        13.5340    0.2590   -1.7540 F     157  INH157     -0.1978
     14  H1        11.6620    0.6890   -3.3120 H     157  INH157      0.0654
     15  H2        14.1860    2.5790   -5.1620 H     157  INH157      0.0625
     16  H3        13.7260    4.2610   -6.8860 H     157  INH157      0.0654
     17  H4        10.4270    5.5230   -7.3600 H     157  INH157      0.2921
     18  H5         9.6140    4.2460   -5.7420 H     157  INH157      0.0654
     19  H6        10.0460    2.5490   -4.0270 H     157  INH157      0.0625
@<TRIPOS>BOND
     1     1    12   ar
     2     1     7   ar
     3     1     2    1
     4     2    14    1
     5     2     3    2
     6     3    13    1
     7     3     4    1
     8     4     6   ar
     9     4     5   ar
    10     7    15    1
    11     7     8   ar
    12     8    16    1
    13     8     9   ar
    14     9    11   ar
    15     9    10    1
    16    10    17    1
    17    11    18    1
    18    11    12   ar
    19    12    19    1
