@<TRIPOS>MOLECULE
/tmp/ewbell/vina_1gyy_1gyy_lig/vina/vina1.pdbqt
 15 15 0 0 0
SMALL
GASTEIGER

@<TRIPOS>ATOM
      1  C1        11.7660    2.8470   -4.9130 C.ar  157  INH157     -0.0330
      2  C5        11.5400    2.0400   -3.7890 C.ar  157  INH157      0.0140
      3  C6        12.5690    1.6050   -2.9840 C.ar  157  INH157      0.0370
      4  C7        13.8770    1.9660   -3.2990 C.ar  157  INH157      0.0650
      5  C8        14.1040    2.7530   -4.4090 C.ar  157  INH157      0.0370
      6  C9        13.0850    3.1910   -5.2290 C.ar  157  INH157      0.0140
      7  C2        10.6710    3.2920   -5.7720 C.2   157  INH157      0.0600
      8  C3        10.0140    2.6350   -6.7330 C.2   157  INH157      0.1900
      9  F1         9.0350    3.2740   -7.4280 F     157  INH157     -0.1990
     10  C4        10.2620    1.2590   -7.1490 C.2   157  INH157      0.2060
     11  O2        11.1670    1.1040   -8.1290 O.2   157  INH157     -0.6440
     12  O1         9.6770    0.3100   -6.6790 O.3   157  INH157     -0.7710
     13  H         10.1550   -0.4500   -6.4110 H     157  INH157      0.1670
     14  O3        14.9130    1.5640   -2.4980 O.3   157  INH157     -0.3610
     15  H4        15.0680    2.2210   -1.8280 H     157  INH157      0.2170
@<TRIPOS>BOND
     1    11    10    2
     2     9     8    1
     3    10     8    1
     4    10    12    1
     5     8     7    2
     6    12    13    1
     7     7     1    1
     8     6     1   ar
     9     6     5   ar
    10     1     2   ar
    11     5     4   ar
    12     2     3   ar
    13     4     3   ar
    14     4    14    1
    15    14    15    1
