@<TRIPOS>MOLECULE
/tmp/ewbell/vina_1gyy_1gyy_lig/vina/vina2.pdbqt
 15 15 0 0 0
SMALL
GASTEIGER

@<TRIPOS>ATOM
      1  C1        14.7860    3.2200   -4.2160 C.ar  157  INH157     -0.0330
      2  C5        14.3040    3.3300   -5.5290 C.ar  157  INH157      0.0140
      3  C6        14.6050    4.4090   -6.3300 C.ar  157  INH157      0.0370
      4  C7        15.4040    5.4310   -5.8190 C.ar  157  INH157      0.0650
      5  C8        15.8730    5.3300   -4.5260 C.ar  157  INH157      0.0370
      6  C9        15.5740    4.2590   -3.7100 C.ar  157  INH157      0.0140
      7  C2        14.4490    2.0800   -3.3670 C.2   157  INH157      0.0600
      8  C3        13.2570    1.6480   -2.9450 C.2   157  INH157      0.1900
      9  F1        13.1920    0.5640   -2.1260 F     157  INH157     -0.1990
     10  C4        11.9680    2.2540   -3.2620 C.2   157  INH157      0.2060
     11  O2        11.1960    1.5600   -4.1140 O.2   157  INH157     -0.6440
     12  O1        11.6140    3.3250   -2.8220 O.3   157  INH157     -0.7710
     13  H         12.1770    4.0700   -2.8930 H     157  INH157      0.1670
     14  O3        15.7360    6.5010   -6.6070 O.3   157  INH157     -0.3610
     15  H4        16.6810    6.5540   -6.6880 H     157  INH157      0.2170
@<TRIPOS>BOND
     1    15    14    1
     2    14     4    1
     3     3     4   ar
     4     3     2   ar
     5     4     5   ar
     6     2     1   ar
     7     5     6   ar
     8     1     6   ar
     9     1     7    1
    10    11    10    2
    11     7     8    2
    12    10     8    1
    13    10    12    1
    14     8     9    1
    15    13    12    1
