@<TRIPOS>MOLECULE
/tmp/ewbell/vina_1gyy_1gyy_lig/vina/vina4.pdbqt
 15 15 0 0 0
SMALL
GASTEIGER

@<TRIPOS>ATOM
      1  C1        14.2130    2.9910   -5.1490 C.ar  157  INH157     -0.0330
      2  C5        13.0450    3.3490   -5.8380 C.ar  157  INH157      0.0140
      3  C6        11.7900    3.0780   -5.3380 C.ar  157  INH157      0.0370
      4  C7        11.6740    2.4190   -4.1160 C.ar  157  INH157      0.0650
      5  C8        12.8210    2.0580   -3.4400 C.ar  157  INH157      0.0370
      6  C9        14.0840    2.3160   -3.9310 C.ar  157  INH157      0.0140
      7  C2        15.5400    3.2670   -5.6940 C.2   157  INH157      0.0600
      8  C3        16.3860    4.2670   -5.4270 C.2   157  INH157      0.1900
      9  F1        17.5720    4.3310   -6.0880 F     157  INH157     -0.1990
     10  C4        16.1530    5.3530   -4.4810 C.2   157  INH157      0.2060
     11  O2        16.3110    5.0360   -3.1850 O.2   157  INH157     -0.6440
     12  O1        15.8080    6.4620   -4.8180 O.3   157  INH157     -0.7710
     13  H         16.1080    6.8200   -5.6310 H     157  INH157      0.1670
     14  O3        10.4360    2.1620   -3.5890 O.3   157  INH157     -0.3610
     15  H4        10.3510    1.2310   -3.4210 H     157  INH157      0.2170
@<TRIPOS>BOND
     1     9     8    1
     2     2     3   ar
     3     2     1   ar
     4     7     8    2
     5     7     1    1
     6    13    12    1
     7     8    10    1
     8     3     4   ar
     9     1     6   ar
    10    12    10    1
    11    10    11    2
    12     4    14    1
    13     4     5   ar
    14     6     5   ar
    15    14    15    1
