@<TRIPOS>MOLECULE
/tmp/ewbell/vina_1gyy_1gyy_lig/vina/vina3.pdbqt
 15 15 0 0 0
SMALL
GASTEIGER

@<TRIPOS>ATOM
      1  C1        12.2820    1.9660   -4.1650 C.ar  157  INH157     -0.0330
      2  C5        12.5650    1.3720   -2.9270 C.ar  157  INH157      0.0140
      3  C6        13.8000    1.4850   -2.3270 C.ar  157  INH157      0.0370
      4  C7        14.8050    2.2030   -2.9730 C.ar  157  INH157      0.0650
      5  C8        14.5330    2.7830   -4.1950 C.ar  157  INH157      0.0370
      6  C9        13.3040    2.6720   -4.8110 C.ar  157  INH157      0.0140
      7  C2        10.9750    1.8270   -4.8030 C.2   157  INH157      0.0600
      8  C3        10.4080    2.5620   -5.7640 C.2   157  INH157      0.1900
      9  F1         9.1530    2.2540   -6.1850 F     157  INH157     -0.1990
     10  C4        11.0070    3.7190   -6.4200 C.2   157  INH157      0.2060
     11  O2        11.7380    3.4510   -7.5150 O.2   157  INH157     -0.6440
     12  O1        10.8920    4.8500   -6.0030 O.3   157  INH157     -0.7710
     13  H         10.7700    5.0010   -5.0870 H     157  INH157      0.1670
     14  O3        16.0320    2.3500   -2.3820 O.3   157  INH157     -0.3610
     15  H4        15.9180    2.5760   -1.4660 H     157  INH157      0.2170
@<TRIPOS>BOND
     1    11    10    2
     2    10    12    1
     3    10     8    1
     4     9     8    1
     5    12    13    1
     6     8     7    2
     7     6     5   ar
     8     6     1   ar
     9     7     1    1
    10     5     4   ar
    11     1     2   ar
    12     4    14    1
    13     4     3   ar
    14     2     3   ar
    15    14    15    1
