@<TRIPOS>MOLECULE
/tmp/ewbell/vina_1gyy_1gyy_lig/vina/vina5.pdbqt
 15 15 0 0 0
SMALL
GASTEIGER

@<TRIPOS>ATOM
      1  C1        12.2240    2.0120   -4.2460 C.ar  157  INH157     -0.0330
      2  C5        13.3170    2.6890   -4.8050 C.ar  157  INH157      0.0140
      3  C6        14.5430    2.7400   -4.1780 C.ar  157  INH157      0.0370
      4  C7        14.7010    2.1100   -2.9450 C.ar  157  INH157      0.0650
      5  C8        13.6250    1.4500   -2.3880 C.ar  157  INH157      0.0370
      6  C9        12.3910    1.3960   -3.0010 C.ar  157  INH157      0.0140
      7  C2        10.9230    1.9760   -4.9090 C.2   157  INH157      0.0600
      8  C3        10.4870    2.6460   -5.9800 C.2   157  INH157      0.1900
      9  F1         9.2070    2.4660   -6.4040 F     157  INH157     -0.1990
     10  C4        11.2610    3.6060   -6.7600 C.2   157  INH157      0.2060
     11  O2        11.2330    4.8720   -6.3130 O.2   157  INH157     -0.6440
     12  O1        11.8680    3.3070   -7.7630 O.3   157  INH157     -0.7710
     13  H         12.6360    2.7730   -7.7060 H     157  INH157      0.1670
     14  O3        15.9180    2.1280   -2.3160 O.3   157  INH157     -0.3610
     15  H4        16.0700    1.2890   -1.8980 H     157  INH157      0.2170
@<TRIPOS>BOND
     1    12    13    1
     2    12    10    1
     3    10    11    2
     4    10     8    1
     5     9     8    1
     6     8     7    2
     7     7     1    1
     8     2     1   ar
     9     2     3   ar
    10     1     6   ar
    11     3     4   ar
    12     6     5   ar
    13     4     5   ar
    14     4    14    1
    15    14    15    1
