@<TRIPOS>MOLECULE
./ligand/1vot_lig.pdb
 37 39 0 0 0
SMALL
GASTEIGER

@<TRIPOS>ATOM
      1  C1         1.0960   69.1690   60.6670 C.ar  1067  INH1067     0.2489
      2  O1         0.5910   69.5470   59.5810 O.2   1067  INH1067    -0.2679
      3  N1         2.4300   68.8470   60.7360 N.ar  1067  INH1067    -0.3258
      4  C2         0.3550   69.0160   61.8850 C.ar  1067  INH1067     0.0033
      5  C3         0.9710   68.6140   63.0250 C.ar  1067  INH1067    -0.0462
      6  C4         2.3680   68.3330   63.0880 C.ar  1067  INH1067     0.0233
      7  C5         3.0880   68.4370   61.8980 C.ar  1067  INH1067     0.0284
      8  C6         4.5590   68.2360   61.7940 C.3   1067  INH1067    -0.0049
      9  C7         5.1250   67.5770   63.0860 C.3   1067  INH1067    -0.0049
     10  C8         4.8110   66.0980   63.1810 C.2   1067  INH1067    -0.0806
     11  C9         6.4780   69.8190   64.7220 C.3   1067  INH1067    -0.0614
     12  C10        5.0720   69.3510   64.8500 C.3   1067  INH1067    -0.0278
     13  C11        4.5400   68.3110   64.2660 C.3   1067  INH1067     0.0425
     14  C12        3.0810   67.9710   64.4350 C.3   1067  INH1067     0.0248
     15  N2         2.4610   68.7050   65.5570 N.4   1067  INH1067     0.2270
     16  C13        2.9410   66.4850   64.7410 C.3   1067  INH1067     0.0190
     17  C14        3.8190   65.6040   63.9290 C.2   1067  INH1067    -0.0703
     18  C15        3.5550   64.1250   64.1060 C.3   1067  INH1067    -0.0436
     19  H1         2.9680   68.9110   59.8950 H     1067  INH1067     0.1686
     20  H2        -0.7140   69.2250   61.8950 H     1067  INH1067     0.0672
     21  H3         0.3740   68.5010   63.9290 H     1067  INH1067     0.0625
     22  H4         5.0460   69.2110   61.6450 H     1067  INH1067     0.0334
     23  H5         4.7730   67.5840   60.9340 H     1067  INH1067     0.0334
     24  H6         6.2190   67.6960   63.0920 H     1067  INH1067     0.0354
     25  H7         5.4240   65.4020   62.6110 H     1067  INH1067     0.0575
     26  H8         6.6210   70.7210   65.3350 H     1067  INH1067     0.0233
     27  H9         6.6920   70.0540   63.6690 H     1067  INH1067     0.0233
     28  H10        7.1610   69.0290   65.0670 H     1067  INH1067     0.0233
     29  H11        4.4190   69.9350   65.4970 H     1067  INH1067     0.0309
     30  H12        1.4900   68.4470   65.6310 H     1067  INH1067     0.2003
     31  H13        2.5330   69.6970   65.3910 H     1067  INH1067     0.2003
     32  H14        2.9370   68.4730   66.4140 H     1067  INH1067     0.2003
     33  H15        1.8960   66.1930   64.5570 H     1067  INH1067     0.0372
     34  H16        3.1840   66.3280   65.8020 H     1067  INH1067     0.0372
     35  H17        4.2460   63.5510   63.4720 H     1067  INH1067     0.0274
     36  H18        2.5180   63.9000   63.8160 H     1067  INH1067     0.0274
     37  H19        3.7090   63.8480   65.1600 H     1067  INH1067     0.0274
@<TRIPOS>BOND
     1     2     1    2
     2    19     3    1
     3     1     3   ar
     4     1     4   ar
     5     3     7   ar
     6    23     8    1
     7    22     8    1
     8     8     7    1
     9     8     9    1
    10     4    20    1
    11     4     5   ar
    12     7     6   ar
    13    25    10    1
    14     5     6   ar
    15     5    21    1
    16     9    24    1
    17     9    10    1
    18     9    13    1
    19     6    14    1
    20    10    17    2
    21    35    18    1
    22    27    11    1
    23    36    18    1
    24    17    18    1
    25    17    16    1
    26    18    37    1
    27    13    14    1
    28    13    12    1
    29    14    16    1
    30    14    15    1
    31    33    16    1
    32    11    12    1
    33    11    28    1
    34    11    26    1
    35    16    34    1
    36    12    29    1
    37    31    15    1
    38    15    30    1
    39    15    32    1
