@<TRIPOS>MOLECULE
/tmp/ewbell/vina_1vot_1vot_lig/vina/vina1.pdbqt
 22 24 0 0 0
SMALL
GASTEIGER

@<TRIPOS>ATOM
      1  C1         4.6750   63.9920   63.0140 C.ar  1067  INH1067     0.2450
      2  O1         5.1460   62.9060   62.5960 O.2   1067  INH1067    -0.2680
      3  N1         4.7810   65.1320   62.2550 N.ar  1067  INH1067    -0.3270
      4  C2         4.0300   64.1490   64.2860 C.ar  1067  INH1067     0.0750
      5  C3         3.5340   65.3530   64.6670 C.ar  1067  INH1067     0.0170
      6  C4         3.6100   66.5140   63.8410 C.ar  1067  INH1067     0.0010
      7  C5         4.2740   66.3800   62.6220 C.ar  1067  INH1067     0.0210
      8  C6         4.3960   67.4700   61.6160 C.3   1067  INH1067     0.0660
      9  C7         3.9930   68.8440   62.2300 C.3   1067  INH1067     0.0210
     10  C8         5.0540   69.4130   63.1490 C.2   1067  INH1067    -0.0190
     11  C9         1.1480   69.4840   61.2170 C.3   1067  INH1067     0.0050
     12  C10        1.5050   68.7880   62.4820 C.3   1067  INH1067     0.0040
     13  C11        2.7020   68.6460   62.9830 C.3   1067  INH1067     0.0340
     14  C12        2.9400   67.8690   64.2530 C.3   1067  INH1067     0.1600
     15  C13        3.8550   68.6700   65.1710 C.3   1067  INH1067     0.0770
     16  C14        4.9920   69.3310   64.4820 C.2   1067  INH1067    -0.0840
     17  C15        5.9950   69.9770   65.4120 C.3   1067  INH1067     0.0430
     18  H1         5.2560   65.0630   61.3770 H     1067  INH1067     0.1690
     19  N2         1.6890   67.6180   64.9980 N.4   1067  INH1067    -0.0650
     20  H13        0.8980   67.8120   64.4040 H     1067  INH1067     0.2750
     21  H12        1.6600   66.6540   65.2890 H     1067  INH1067     0.2750
     22  H14        1.6550   68.2150   65.8080 H     1067  INH1067     0.2750
@<TRIPOS>BOND
     1    11    12    1
     2    18     3    1
     3     8     9    1
     4     8     7    1
     5     9    13    1
     6     9    10    1
     7     3     7   ar
     8     3     1   ar
     9    12    13    1
    10     2     1    2
    11     7     6   ar
    12    13    14    1
    13     1     4   ar
    14    10    16    2
    15     6    14    1
    16     6     5   ar
    17    14    19    1
    18    14    15    1
    19     4     5   ar
    20    20    19    1
    21    16    15    1
    22    16    17    1
    23    19    21    1
    24    19    22    1
