@<TRIPOS>MOLECULE
/tmp/ewbell/vina_1vot_1vot_lig/vina/vina4.pdbqt
 22 24 0 0 0
SMALL
GASTEIGER

@<TRIPOS>ATOM
      1  C1         2.8770   62.6310   69.0250 C.ar  1067  INH1067     0.2450
      2  O1         3.3340   62.7360   67.8590 O.2   1067  INH1067    -0.2680
      3  N1         2.5700   61.3950   69.5400 N.ar  1067  INH1067    -0.3270
      4  C2         2.6170   63.7470   69.8870 C.ar  1067  INH1067     0.0750
      5  C3         2.1340   63.5560   71.1400 C.ar  1067  INH1067     0.0170
      6  C4         1.8690   62.2610   71.6750 C.ar  1067  INH1067     0.0010
      7  C5         2.0790   61.1720   70.8280 C.ar  1067  INH1067     0.0210
      8  C6         1.9080   59.7520   71.2390 C.3   1067  INH1067     0.0660
      9  C7         1.1560   59.6510   72.5990 C.3   1067  INH1067     0.0210
     10  C8        -0.3300   59.9160   72.4730 C.2   1067  INH1067    -0.0190
     11  C9         3.2790   59.0570   74.7600 C.3   1067  INH1067     0.0050
     12  C10        2.7820   60.3970   74.3480 C.3   1067  INH1067     0.0040
     13  C11        1.7850   60.6450   73.5420 C.3   1067  INH1067     0.0340
     14  C12        1.4110   62.0540   73.1590 C.3   1067  INH1067     0.1600
     15  C13       -0.0970   62.2300   73.2910 C.3   1067  INH1067     0.0770
     16  C14       -0.8970   61.0860   72.7840 C.2   1067  INH1067    -0.0840
     17  C15       -2.3890   61.3330   72.7520 C.3   1067  INH1067     0.0430
     18  H1         2.7090   60.5980   68.9510 H     1067  INH1067     0.1690
     19  N2         2.0440   63.0600   74.0360 N.4   1067  INH1067    -0.0650
     20  H13        1.7000   62.9500   74.9770 H     1067  INH1067     0.2750
     21  H12        3.0430   62.9320   74.0270 H     1067  INH1067     0.2750
     22  H14        1.8200   63.9840   73.7030 H     1067  INH1067     0.2750
@<TRIPOS>BOND
     1     2     1    2
     2    18     3    1
     3     1     3   ar
     4     1     4   ar
     5     3     7   ar
     6     4     5   ar
     7     7     8    1
     8     7     6   ar
     9     5     6   ar
    10     8     9    1
    11     6    14    1
    12    10     9    1
    13    10    16    2
    14     9    13    1
    15    17    16    1
    16    16    15    1
    17    14    15    1
    18    14    13    1
    19    14    19    1
    20    13    12    1
    21    22    19    1
    22    21    19    1
    23    19    20    1
    24    12    11    1
