@<TRIPOS>MOLECULE
/tmp/ewbell/vina_1vot_1vot_lig/vina/vina3.pdbqt
 22 24 0 0 0
SMALL
GASTEIGER

@<TRIPOS>ATOM
      1  C1         0.1010   68.7140   62.5220 C.ar  1067  INH1067     0.2450
      2  O1        -1.1280   68.9640   62.5810 O.2   1067  INH1067    -0.2680
      3  N1         0.7050   67.9720   63.5080 N.ar  1067  INH1067    -0.3270
      4  C2         0.9650   69.1830   61.4780 C.ar  1067  INH1067     0.0750
      5  C3         2.2830   68.8630   61.4740 C.ar  1067  INH1067     0.0170
      6  C4         2.8820   68.0490   62.4800 C.ar  1067  INH1067     0.0010
      7  C5         2.0580   67.6240   63.5230 C.ar  1067  INH1067     0.0210
      8  C6         2.5020   66.7240   64.6220 C.3   1067  INH1067     0.0660
      9  C7         4.0530   66.5960   64.6460 C.3   1067  INH1067     0.0210
     10  C8         4.7390   67.8220   65.2140 C.2   1067  INH1067    -0.0190
     11  C9         4.7510   63.8680   63.3770 C.3   1067  INH1067     0.0050
     12  C10        4.6620   65.1770   62.6760 C.3   1067  INH1067     0.0040
     13  C11        4.5120   66.3500   63.2310 C.3   1067  INH1067     0.0340
     14  C12        4.3820   67.6040   62.4030 C.3   1067  INH1067     0.1600
     15  C13        5.2970   68.6810   62.9710 C.3   1067  INH1067     0.0770
     16  C14        5.3000   68.7680   64.4540 C.2   1067  INH1067    -0.0840
     17  C15        6.0680   69.9470   65.0090 C.3   1067  INH1067     0.0430
     18  H1         0.1360   67.6570   64.2680 H     1067  INH1067     0.1690
     19  N2         4.7820   67.3910   60.9970 N.4   1067  INH1067    -0.0650
     20  H13        5.7830   67.4880   60.9140 H     1067  INH1067     0.2750
     21  H12        4.5100   66.4660   60.7070 H     1067  INH1067     0.2750
     22  H14        4.3290   68.0740   60.4120 H     1067  INH1067     0.2750
@<TRIPOS>BOND
     1    22    19    1
     2    21    19    1
     3    20    19    1
     4    19    14    1
     5     5     4   ar
     6     5     6   ar
     7     4     1   ar
     8    14     6    1
     9    14    15    1
    10    14    13    1
    11     6     7   ar
    12     1     2    2
    13     1     3   ar
    14    12    13    1
    15    12    11    1
    16    15    16    1
    17    13     9    1
    18     3     7   ar
    19     3    18    1
    20     7     8    1
    21    16    17    1
    22    16    10    2
    23     8     9    1
    24     9    10    1
