@<TRIPOS>MOLECULE
/tmp/ewbell/vina_1vot_1vot_lig/vina/vina2.pdbqt
 22 24 0 0 0
SMALL
GASTEIGER

@<TRIPOS>ATOM
      1  C1         1.0110   69.2940   61.0700 C.ar  1067  INH1067     0.2450
      2  O1         0.5240   69.6760   59.9780 O.2   1067  INH1067    -0.2680
      3  N1         2.3540   69.0210   61.1720 N.ar  1067  INH1067    -0.3270
      4  C2         0.2410   69.0860   62.2620 C.ar  1067  INH1067     0.0750
      5  C3         0.8390   68.6830   63.4110 C.ar  1067  INH1067     0.0170
      6  C4         2.2430   68.4530   63.5100 C.ar  1067  INH1067     0.0010
      7  C5         2.9930   68.6110   62.3450 C.ar  1067  INH1067     0.0210
      8  C6         4.4730   68.4680   62.2810 C.3   1067  INH1067     0.0660
      9  C7         5.0260   67.8020   63.5750 C.3   1067  INH1067     0.0210
     10  C8         4.7670   66.3110   63.6300 C.2   1067  INH1067    -0.0190
     11  C9         6.2440   70.0580   65.2970 C.3   1067  INH1067     0.0050
     12  C10        4.8530   69.5340   65.3730 C.3   1067  INH1067     0.0040
     13  C11        4.3790   68.4880   64.7520 C.3   1067  INH1067     0.0340
     14  C12        2.9300   68.0890   64.8700 C.3   1067  INH1067     0.1600
     15  C13        2.8380   66.5930   65.1410 C.3   1067  INH1067     0.0770
     16  C14        3.7730   65.7630   64.3370 C.2   1067  INH1067    -0.0840
     17  C15        3.5610   64.2720   64.4760 C.3   1067  INH1067     0.0430
     18  H1         2.9130   69.1240   60.3490 H     1067  INH1067     0.1690
     19  N2         2.2500   68.7740   65.9880 N.4   1067  INH1067    -0.0650
     20  H13        2.7800   68.6430   66.8360 H     1067  INH1067     0.2750
     21  H12        2.1800   69.7590   65.7860 H     1067  INH1067     0.2750
     22  H14        1.3270   68.3890   66.1070 H     1067  INH1067     0.2750
@<TRIPOS>BOND
     1     2     1    2
     2    18     3    1
     3     1     3   ar
     4     1     4   ar
     5     3     7   ar
     6     4     5   ar
     7     8     7    1
     8     8     9    1
     9     7     6   ar
    10     5     6   ar
    11     6    14    1
    12     9    10    1
    13     9    13    1
    14    10    16    2
    15    16    17    1
    16    16    15    1
    17    13    14    1
    18    13    12    1
    19    14    15    1
    20    14    19    1
    21    11    12    1
    22    21    19    1
    23    19    22    1
    24    19    20    1
