@<TRIPOS>MOLECULE
/tmp/ewbell/vina_1vot_1vot_lig/vina/vina5.pdbqt
 22 24 0 0 0
SMALL
GASTEIGER

@<TRIPOS>ATOM
      1  C1         0.3470   57.2800   72.8590 C.ar  1067  INH1067     0.2450
      2  O1        -0.3530   56.2510   73.0220 O.2   1067  INH1067    -0.2680
      3  N1        -0.2490   58.4900   72.5980 N.ar  1067  INH1067    -0.3270
      4  C2         1.7800   57.2890   72.9020 C.ar  1067  INH1067     0.0750
      5  C3         2.4710   58.4440   72.7290 C.ar  1067  INH1067     0.0170
      6  C4         1.8310   59.7000   72.5090 C.ar  1067  INH1067     0.0010
      7  C5         0.4390   59.6930   72.4230 C.ar  1067  INH1067     0.0210
      8  C6        -0.3910   60.9160   72.2540 C.3   1067  INH1067     0.0660
      9  C7         0.4890   62.1370   71.8540 C.3   1067  INH1067     0.0210
     10  C8         0.9330   62.0960   70.4060 C.2   1067  INH1067    -0.0190
     11  C9         0.8540   63.8550   74.3940 C.3   1067  INH1067     0.0050
     12  C10        1.7610   62.7790   73.9110 C.3   1067  INH1067     0.0040
     13  C11        1.6890   62.1530   72.7670 C.3   1067  INH1067     0.0340
     14  C12        2.6400   61.0380   72.4160 C.3   1067  INH1067     0.1600
     15  C13        3.1720   61.2530   71.0040 C.3   1067  INH1067     0.0770
     16  C14        2.1480   61.6920   70.0210 C.2   1067  INH1067    -0.0840
     17  C15        2.6350   61.7360   68.5900 C.3   1067  INH1067     0.0430
     18  H1        -1.2470   58.5110   72.5290 H     1067  INH1067     0.1690
     19  N2         3.8100   60.9940   73.3170 N.4   1067  INH1067    -0.0650
     20  H13        4.2190   61.9130   73.3820 H     1067  INH1067     0.2750
     21  H12        3.5170   60.6920   74.2320 H     1067  INH1067     0.2750
     22  H14        4.4910   60.3490   72.9520 H     1067  INH1067     0.2750
@<TRIPOS>BOND
     1    17    16    1
     2    16    10    2
     3    16    15    1
     4    10     9    1
     5    15    14    1
     6     9     8    1
     7     9    13    1
     8     8     7    1
     9    14     6    1
    10    14    13    1
    11    14    19    1
    12     7     6   ar
    13     7     3   ar
    14     6     5   ar
    15    18     3    1
    16     3     1   ar
    17     5     4   ar
    18    13    12    1
    19     1     4   ar
    20     1     2    2
    21    22    19    1
    22    19    20    1
    23    19    21    1
    24    12    11    1
