@<TRIPOS>MOLECULE
./ligand/2jj3_lig.pdb
 46 49 0 0 0
SMALL
GASTEIGER

@<TRIPOS>ATOM
      1  C1        79.9690   42.6170   68.0430 C.ar  466  INH466      0.1177
      2  C2        80.0090   42.6960   69.4310 C.ar  466  INH466     -0.0113
      3  C3        79.1100   41.9430   70.1820 C.ar  466  INH466      0.0234
      4  C4        78.1650   41.1120   69.5730 C.ar  466  INH466      0.1304
      5  O1        77.3310   40.4200   70.4030 O.3   466  INH466     -0.4833
      6  C5        76.9060   39.1920   69.8100 C.3   466  INH466      0.1285
      7  C6        76.1480   39.4660   68.4900 C.3   466  INH466      0.0072
      8  C7        75.0360   40.5320   68.7030 C.3   466  INH466     -0.0460
      9  C8        74.8590   41.1840   67.3090 C.3   466  INH466     -0.0521
     10  C9        76.1980   41.0060   66.5620 C.3   466  INH466     -0.0457
     11  C10       77.1220   40.1290   67.4700 C.3   466  INH466     -0.0058
     12  C11       78.1260   41.0270   68.1880 C.ar  466  INH466      0.0016
     13  C12       79.0280   41.7850   67.4170 C.ar  466  INH466     -0.0132
     14  C13       76.0200   38.4410   70.7970 C.ar  466  INH466     -0.0069
     15  C14       75.9830   38.8250   72.1370 C.ar  466  INH466     -0.0516
     16  C15       75.1690   38.1400   73.0420 C.ar  466  INH466     -0.0198
     17  C16       74.3910   37.0640   72.5980 C.ar  466  INH466      0.1169
     18  O2        73.5840   36.3860   73.4700 O.3   466  INH466     -0.5068
     19  C17       74.4280   36.6770   71.2590 C.ar  466  INH466     -0.0198
     20  C18       75.2410   37.3630   70.3600 C.ar  466  INH466     -0.0516
     21  C19       79.1470   42.0170   71.6670 C.3   466  INH466      0.0759
     22  O3        79.6730   40.7730   72.1350 O.3   466  INH466     -0.3783
     23  C20       80.4590   41.0690   73.2630 C.3   466  INH466      0.0369
     24  O4        80.8480   43.3580   67.3100 O.3   466  INH466     -0.5067
     25  H1        80.7320   43.3370   69.9230 H     466  INH466      0.0659
     26  H2        77.7910   38.5770   69.5870 H     466  INH466      0.0787
     27  H3        75.7280   38.5300   68.0940 H     466  INH466      0.0346
     28  H4        75.3500   41.2800   69.4460 H     466  INH466      0.0269
     29  H5        74.1000   40.0580   69.0330 H     466  INH466      0.0269
     30  H6        74.6250   42.2530   67.4180 H     466  INH466      0.0266
     31  H7        74.0480   40.6850   66.7580 H     466  INH466      0.0266
     32  H8        76.6640   41.9860   66.3850 H     466  INH466      0.0271
     33  H9        76.0280   40.5020   65.5990 H     466  INH466      0.0271
     34  H10       77.6530   39.3670   66.8810 H     466  INH466      0.0354
     35  H11       78.9950   41.7260   66.3350 H     466  INH466      0.0658
     36  H12       76.5880   39.6580   72.4770 H     466  INH466      0.0623
     37  H13       75.1400   38.4400   74.0830 H     466  INH466      0.0654
     38  H14       73.6680   36.7650   74.3370 H     466  INH466      0.2921
     39  H15       73.8250   35.8430   70.9180 H     466  INH466      0.0654
     40  H16       75.2710   37.0610   69.3190 H     466  INH466      0.0623
     41  H17       78.1320   42.1710   72.0630 H     466  INH466      0.0611
     42  H18       79.7950   42.8460   71.9880 H     466  INH466      0.0611
     43  H19       80.8900   40.1400   73.6640 H     466  INH466      0.0524
     44  H20       79.8320   41.5440   74.0320 H     466  INH466      0.0524
     45  H21       81.2700   41.7550   72.9750 H     466  INH466      0.0524
     46  H22       80.7000   43.1990   66.3850 H     466  INH466      0.2921
@<TRIPOS>BOND
     1     1    24    1
     2     1    13   ar
     3     1     2   ar
     4     2    25    1
     5     2     3   ar
     6     3    21    1
     7     3     4   ar
     8     4    12   ar
     9     4     5    1
    10     5     6    1
    11     6    26    1
    12     6    14    1
    13     6     7    1
    14     7    27    1
    15     7    11    1
    16     7     8    1
    17     8    29    1
    18     8    28    1
    19     8     9    1
    20     9    31    1
    21     9    30    1
    22     9    10    1
    23    10    33    1
    24    10    32    1
    25    10    11    1
    26    11    34    1
    27    11    12    1
    28    12    13   ar
    29    13    35    1
    30    14    20   ar
    31    14    15   ar
    32    15    36    1
    33    15    16   ar
    34    16    37    1
    35    16    17   ar
    36    17    19   ar
    37    17    18    1
    38    18    38    1
    39    19    39    1
    40    19    20   ar
    41    20    40    1
    42    21    42    1
    43    21    41    1
    44    21    22    1
    45    22    23    1
    46    23    45    1
    47    23    44    1
    48    23    43    1
    49    24    46    1
