@<TRIPOS>MOLECULE
/tmp/ewbell/vina_2jj3_2jj3_lig/vina/vina4.pdbqt
 26 29 0 0 0
SMALL
GASTEIGER

@<TRIPOS>ATOM
      1  C1        71.4160   32.9090   78.6820 C.ar  466  INH466      0.0670
      2  C2        70.5490   33.9590   78.9650 C.ar  466  INH466      0.0480
      3  C3        69.1760   33.7550   78.8570 C.ar  466  INH466      0.0020
      4  C4        68.6480   32.5210   78.4660 C.ar  466  INH466      0.0850
      5  O1        67.2880   32.4310   78.3900 O.3   466  INH466     -0.3400
      6  C5        66.8380   31.0990   78.6420 C.3   466  INH466      0.1660
      7  C6        67.4410   30.1230   77.6040 C.3   466  INH466      0.0280
      8  C7        67.2170   30.6480   76.1580 C.3   466  INH466      0.0080
      9  C8        68.3780   30.0260   75.3410 C.3   466  INH466      0.0010
     10  C9        69.5260   29.7570   76.3360 C.3   466  INH466      0.0100
     11  C10       68.9910   30.0980   77.7660 C.3   466  INH466      0.0280
     12  C11       69.5110   31.4700   78.1880 C.ar  466  INH466     -0.0170
     13  C12       70.9020   31.6630   78.2910 C.ar  466  INH466      0.0470
     14  C13       65.3150   31.0680   78.5930 C.ar  466  INH466     -0.0280
     15  C18       64.6130   30.0460   79.2430 C.ar  466  INH466      0.0120
     16  C17       63.2220   30.0130   79.1980 C.ar  466  INH466      0.0370
     17  C16       62.5260   31.0030   78.5040 C.ar  466  INH466      0.0650
     18  C15       63.2210   32.0290   77.8540 C.ar  466  INH466      0.0370
     19  C14       64.6170   32.0580   77.9020 C.ar  466  INH466      0.0120
     20  O2        61.1590   30.9570   78.4620 O.3   466  INH466     -0.3610
     21  H14       60.8050   31.4550   79.1900 H     466  INH466      0.2170
     22  C19       68.2390   34.8700   79.1610 C.3   466  INH466      0.2080
     23  O3        67.9460   35.5210   77.9230 O.3   466  INH466     -0.3910
     24  C20       66.5590   35.7500   77.9090 C.3   466  INH466      0.2010
     25  O4        72.7610   33.1120   78.7850 O.3   466  INH466     -0.3610
     26  H22       72.9740   33.9800   78.4630 H     466  INH466      0.2170
@<TRIPOS>BOND
     1     9     8    1
     2     9    10    1
     3     8     7    1
     4    10    11    1
     5     7    11    1
     6     7     6    1
     7    11    12    1
     8    18    19   ar
     9    18    17   ar
    10    19    14   ar
    11    24    23    1
    12    23    22    1
    13    12    13   ar
    14    12     4   ar
    15    13     1   ar
    16     5     4    1
    17     5     6    1
    18    20    17    1
    19    20    21    1
    20    26    25    1
    21     4     3   ar
    22    17    16   ar
    23    14     6    1
    24    14    15   ar
    25     1    25    1
    26     1     2   ar
    27     3     2   ar
    28     3    22    1
    29    16    15   ar
