@<TRIPOS>MOLECULE
/tmp/ewbell/vina_2jj3_2jj3_lig/vina/vina1.pdbqt
 26 29 0 0 0
SMALL
GASTEIGER

@<TRIPOS>ATOM
      1  C1        79.7830   42.4220   67.8810 C.ar  466  INH466      0.0670
      2  C2        78.9110   41.7000   67.0740 C.ar  466  INH466      0.0480
      3  C3        78.0600   40.7650   67.6570 C.ar  466  INH466      0.0020
      4  C4        78.0660   40.5310   69.0350 C.ar  466  INH466      0.0850
      5  O1        77.1930   39.5910   69.5020 O.3   466  INH466     -0.3400
      6  C5        76.7940   39.8700   70.8450 C.3   466  INH466      0.1660
      7  C6        78.0260   39.8860   71.7800 C.3   466  INH466      0.0280
      8  C7        78.8830   38.6030   71.5850 C.3   466  INH466      0.0080
      9  C8        80.3140   39.0330   71.9960 C.3   466  INH466      0.0010
     10  C9        80.4010   40.5580   71.7730 C.3   466  INH466      0.0100
     11  C10       78.9740   41.0470   71.3560 C.3   466  INH466      0.0280
     12  C11       78.9320   41.2540   69.8440 C.ar  466  INH466     -0.0170
     13  C12       79.7990   42.2010   69.2670 C.ar  466  INH466      0.0470
     14  C13       75.7860   38.8200   71.2950 C.ar  466  INH466     -0.0280
     15  C18       75.2770   38.8500   72.5990 C.ar  466  INH466      0.0120
     16  C17       74.3570   37.8900   73.0140 C.ar  466  INH466      0.0370
     17  C16       73.9420   36.8960   72.1280 C.ar  466  INH466      0.0650
     18  C15       74.4460   36.8610   70.8220 C.ar  466  INH466      0.0370
     19  C14       75.3680   37.8260   70.4100 C.ar  466  INH466      0.0120
     20  O2        73.0440   35.9550   72.5500 O.3   466  INH466     -0.3610
     21  H14       73.3680   35.5420   73.3420 H     466  INH466      0.2170
     22  C19       77.1200   39.9900   66.8040 C.3   466  INH466      0.2080
     23  O3        76.0860   40.8890   66.3960 O.3   466  INH466     -0.3910
     24  C20       74.8870   40.3910   66.9350 C.3   466  INH466      0.2010
     25  O4        80.6180   43.3350   67.3060 O.3   466  INH466     -0.3610
     26  H22       80.5700   43.2550   66.3610 H     466  INH466      0.2170
@<TRIPOS>BOND
     1    26    25    1
     2    23    22    1
     3    23    24    1
     4    22     3    1
     5     2     3   ar
     6     2     1   ar
     7    25     1    1
     8     3     4   ar
     9     1    13   ar
    10     4     5    1
    11     4    12   ar
    12    13    12   ar
    13     5     6    1
    14    12    11    1
    15    19    18   ar
    16    19    14   ar
    17    18    17   ar
    18     6    14    1
    19     6     7    1
    20    14    15   ar
    21    11    10    1
    22    11     7    1
    23     8     7    1
    24     8     9    1
    25    10     9    1
    26    17    20    1
    27    17    16   ar
    28    20    21    1
    29    15    16   ar
