@<TRIPOS>MOLECULE
/tmp/ewbell/vina_2jj3_2jj3_lig/vina/vina5.pdbqt
 26 29 0 0 0
SMALL
GASTEIGER

@<TRIPOS>ATOM
      1  C1        84.9430   50.0020   61.5180 C.ar  466  INH466      0.0670
      2  C2        83.8270   49.7430   62.3080 C.ar  466  INH466      0.0480
      3  C3        83.0160   48.6530   62.0040 C.ar  466  INH466      0.0020
      4  C4        83.2940   47.8150   60.9200 C.ar  466  INH466      0.0850
      5  O1        82.4330   46.7770   60.7100 O.3   466  INH466     -0.3400
      6  C5        83.0900   45.6710   60.0890 C.3   466  INH466      0.1660
      7  C6        83.6730   46.0920   58.7200 C.3   466  INH466      0.0280
      8  C7        82.5950   46.8080   57.8570 C.3   466  INH466      0.0080
      9  C8        83.4100   47.7300   56.9150 C.3   466  INH466      0.0010
     10  C9        84.7420   48.0340   57.6330 C.3   466  INH466      0.0100
     11  C10       84.7670   47.1800   58.9440 C.3   466  INH466      0.0280
     12  C11       84.4090   48.0680   60.1330 C.ar  466  INH466     -0.0170
     13  C12       85.2370   49.1680   60.4290 C.ar  466  INH466      0.0470
     14  C13       82.0950   44.5280   59.9250 C.ar  466  INH466     -0.0280
     15  C18       80.7210   44.7920   59.8970 C.ar  466  INH466      0.0120
     16  C17       79.8100   43.7490   59.7500 C.ar  466  INH466      0.0370
     17  C16       80.2680   42.4380   59.6290 C.ar  466  INH466      0.0650
     18  C15       81.6420   42.1660   59.6540 C.ar  466  INH466      0.0370
     19  C14       82.5520   43.2160   59.8010 C.ar  466  INH466      0.0120
     20  O2        79.3630   41.4210   59.4910 O.3   466  INH466     -0.3610
     21  H14       79.4940   40.7870   60.1870 H     466  INH466      0.2170
     22  C19       81.8230   48.3650   62.8440 C.3   466  INH466      0.2080
     23  O3        82.2680   48.3240   64.2020 O.3   466  INH466     -0.3910
     24  C20       81.3580   49.0970   64.9450 C.3   466  INH466      0.2010
     25  O4        85.7330   51.0720   61.8160 O.3   466  INH466     -0.3610
     26  H22       85.7510   51.6670   61.0760 H     466  INH466      0.2170
@<TRIPOS>BOND
     1     9    10    1
     2     9     8    1
     3    10    11    1
     4     8     7    1
     5     7    11    1
     6     7     6    1
     7    11    12    1
     8    20    17    1
     9    20    21    1
    10    17    18   ar
    11    17    16   ar
    12    18    19   ar
    13    16    15   ar
    14    19    14   ar
    15    15    14   ar
    16    14     6    1
    17     6     5    1
    18    12    13   ar
    19    12     4   ar
    20    13     1   ar
    21     5     4    1
    22     4     3   ar
    23    26    25    1
    24     1    25    1
    25     1     2   ar
    26     3     2   ar
    27     3    22    1
    28    22    23    1
    29    23    24    1
