@<TRIPOS>MOLECULE
/tmp/ewbell/vina_2jj3_2jj3_lig/vina/vina3.pdbqt
 26 29 0 0 0
SMALL
GASTEIGER

@<TRIPOS>ATOM
      1  C1        62.7910   30.8420   76.6930 C.ar  466  INH466      0.0670
      2  C2        63.1680   32.1370   77.0320 C.ar  466  INH466      0.0480
      3  C3        64.4910   32.3910   77.3850 C.ar  466  INH466      0.0020
      4  C4        65.4490   31.3720   77.4100 C.ar  466  INH466      0.0850
      5  O1        66.7160   31.7300   77.7710 O.3   466  INH466     -0.3400
      6  C5        67.6910   30.8810   77.1640 C.3   466  INH466      0.1660
      7  C6        67.4680   29.4120   77.5940 C.3   466  INH466      0.0280
      8  C7        67.3470   29.3020   79.1400 C.3   466  INH466      0.0080
      9  C8        66.4870   28.0330   79.3670 C.3   466  INH466      0.0010
     10  C9        65.6290   27.8450   78.0970 C.3   466  INH466      0.0100
     11  C10       66.0820   28.9310   77.0670 C.3   466  INH466      0.0280
     12  C11       65.0770   30.0800   77.0660 C.ar  466  INH466     -0.0170
     13  C12       63.7410   29.8100   76.7100 C.ar  466  INH466      0.0470
     14  C13       69.0830   31.3560   77.5630 C.ar  466  INH466     -0.0280
     15  C18       69.2350   32.5150   78.3330 C.ar  466  INH466      0.0120
     16  C17       70.5070   32.9530   78.6970 C.ar  466  INH466      0.0370
     17  C16       71.6310   32.2340   78.2920 C.ar  466  INH466      0.0650
     18  C15       71.4860   31.0730   77.5230 C.ar  466  INH466      0.0370
     19  C14       70.2090   30.6370   77.1620 C.ar  466  INH466      0.0120
     20  O2        72.8750   32.6780   78.6500 O.3   466  INH466     -0.3610
     21  H14       73.4100   31.9370   78.9090 H     466  INH466      0.2170
     22  C19       64.9060   33.7730   77.7450 C.3   466  INH466      0.2080
     23  O3        63.7770   34.6200   77.5230 O.3   466  INH466     -0.3910
     24  C20       64.0890   35.8640   78.1010 C.3   466  INH466      0.2010
     25  O4        61.4940   30.5960   76.3510 O.3   466  INH466     -0.3610
     26  H22       61.3800   30.7410   75.4190 H     466  INH466      0.2170
@<TRIPOS>BOND
     1    26    25    1
     2    25     1    1
     3     1    13   ar
     4     1     2   ar
     5    13    12   ar
     6     2     3   ar
     7    12    11    1
     8    12     4   ar
     9    11     7    1
    10    11    10    1
    11    19    18   ar
    12    19    14   ar
    13     6    14    1
    14     6     7    1
    15     6     5    1
    16     3     4   ar
    17     3    22    1
    18     4     5    1
    19    23    22    1
    20    23    24    1
    21    18    17   ar
    22    14    15   ar
    23     7     8    1
    24    10     9    1
    25    17    20    1
    26    17    16   ar
    27    15    16   ar
    28    20    21    1
    29     8     9    1
