@<TRIPOS>MOLECULE
/tmp/ewbell/vina_2jj3_2jj3_lig/vina/vina2.pdbqt
 26 29 0 0 0
SMALL
GASTEIGER

@<TRIPOS>ATOM
      1  C1        70.5060   35.0840   78.4530 C.ar  466  INH466      0.0670
      2  C2        69.1410   35.3480   78.4360 C.ar  466  INH466      0.0480
      3  C3        68.2420   34.2850   78.4630 C.ar  466  INH466      0.0020
      4  C4        68.6800   32.9580   78.5010 C.ar  466  INH466      0.0850
      5  O1        67.7140   31.9930   78.5220 O.3   466  INH466     -0.3400
      6  C5        68.1650   30.8180   79.1970 C.3   466  INH466      0.1660
      7  C6        69.4090   30.2340   78.4870 C.3   466  INH466      0.0280
      8  C7        69.1510   30.0780   76.9610 C.3   466  INH466      0.0080
      9  C8        70.5600   30.1680   76.3240 C.3   466  INH466      0.0010
     10  C9        71.4370   30.9840   77.2970 C.3   466  INH466      0.0100
     11  C10       70.5760   31.2620   78.5740 C.3   466  INH466      0.0280
     12  C11       70.0420   32.6910   78.5220 C.ar  466  INH466     -0.0170
     13  C12       70.9620   33.7570   78.4940 C.ar  466  INH466      0.0470
     14  C13       67.0340   29.7970   79.2330 C.ar  466  INH466     -0.0280
     15  C18       67.2980   28.4700   79.5910 C.ar  466  INH466      0.0120
     16  C17       66.2670   27.5340   79.6220 C.ar  466  INH466      0.0370
     17  C16       64.9670   27.9210   79.2970 C.ar  466  INH466      0.0650
     18  C15       64.6960   29.2480   78.9390 C.ar  466  INH466      0.0370
     19  C14       65.7330   30.1830   78.9100 C.ar  466  INH466      0.0120
     20  O2        63.9640   26.9920   79.3250 O.3   466  INH466     -0.3610
     21  H14       63.4590   27.0480   78.5220 H     466  INH466      0.2170
     22  C19       66.7790   34.5560   78.4500 C.3   466  INH466      0.2080
     23  O3        66.5900   35.7980   77.7670 O.3   466  INH466     -0.3910
     24  C20       65.2130   36.0770   77.8190 C.3   466  INH466      0.2010
     25  O4        71.3850   36.1260   78.4230 O.3   466  INH466     -0.3610
     26  H22       71.0040   36.8720   78.8730 H     466  INH466      0.2170
@<TRIPOS>BOND
     1     9     8    1
     2     9    10    1
     3     8     7    1
     4    10    11    1
     5    23    24    1
     6    23    22    1
     7    25     1    1
     8    25    26    1
     9     2     1   ar
    10     2     3   ar
    11    22     3    1
    12     1    13   ar
    13     3     4   ar
    14     7    11    1
    15     7     6    1
    16    13    12   ar
    17     4    12   ar
    18     4     5    1
    19    12    11    1
    20     5     6    1
    21    21    20    1
    22    19    18   ar
    23    19    14   ar
    24    18    17   ar
    25     6    14    1
    26    14    15   ar
    27    17    20    1
    28    17    16   ar
    29    15    16   ar
