@<TRIPOS>MOLECULE
./ligand/1b6m_lig.pdb
 92 94 0 0 0
SMALL
GASTEIGER

@<TRIPOS>ATOM
      1  O1         2.8080    1.9690   12.1240 O.3   203  INH203     -0.4447
      2  O2         3.8350   -0.0320   12.0460 O.2   203  INH203     -0.2265
      3  C1         1.0770    0.3200   12.6340 C.3   203  INH203     -0.0253
      4  C2         0.5560    2.4860   11.5390 C.3   203  INH203     -0.0253
      5  C3         1.8090    0.7650   10.2580 C.3   203  INH203     -0.0253
      6  C4         1.5870    1.3710   11.6460 C.3   203  INH203      0.1068
      7  C5         3.8210    1.1580   12.3990 C.2   203  INH203      0.4011
      8  N1         4.8280    1.7130   13.0680 N.am  203  INH203     -0.2753
      9  C6         6.0330    0.9660   13.4470 C.3   203  INH203      0.0611
     10  C7         7.2750    1.8050   13.1830 C.3   203  INH203     -0.0065
     11  C8         7.4750    2.1320   11.7460 C.ar  203  INH203     -0.0455
     12  C9         7.8650    1.1460   10.8500 C.ar  203  INH203     -0.0585
     13  C10        7.2350    3.4170   11.2760 C.ar  203  INH203     -0.0585
     14  C11        8.0170    1.4350    9.5080 C.ar  203  INH203     -0.0615
     15  C12        7.3850    3.7170    9.9340 C.ar  203  INH203     -0.0615
     16  C13        7.7720    2.7230    9.0460 C.ar  203  INH203     -0.0617
     17  C14        6.0080    0.5390   14.9040 C.3   203  INH203      0.1134
     18  O3         7.2050   -0.1890   15.1920 O.3   203  INH203     -0.3847
     19  C15        4.8040   -0.3490   15.1870 C.3   203  INH203     -0.0045
     20  N2         4.8920   -0.7540   16.6000 N.4   203  INH203      0.2378
     21  C16        4.6730   -2.2010   16.8610 C.3   203  INH203      0.0590
     22  C17        3.2670   -2.6540   16.4460 C.3   203  INH203      0.0241
     23  C18        3.1210   -4.1510   16.5700 C.ar  203  INH203     -0.0413
     24  C19        3.0910   -4.7670   17.8230 C.ar  203  INH203     -0.0549
     25  C20        3.1310   -6.1480   17.9420 C.ar  203  INH203     -0.0197
     26  C21        3.1690   -4.9630   15.4390 C.ar  203  INH203     -0.0549
     27  C22        3.2090   -6.3390   15.5470 C.ar  203  INH203     -0.0197
     28  C23        3.1980   -6.9280   16.7950 C.ar  203  INH203      0.1205
     29  O4         3.3050   -8.2960   16.8630 O.3   203  INH203     -0.4919
     30  C24        3.7900   -8.9410   18.0290 C.3   203  INH203      0.0910
     31  C25        5.6890   -3.1860   16.2910 C.2   203  INH203      0.2621
     32  O5         5.9960   -3.1750   15.0970 O.2   203  INH203     -0.2696
     33  N3         6.1870   -4.0500   17.1690 N.am  203  INH203     -0.2991
     34  C26        7.1520   -5.1000   16.8150 C.3   203  INH203      0.1021
     35  C27        6.9120   -6.1780   17.8650 C.2   203  INH203      0.2336
     36  O6         7.0470   -5.9220   19.0640 O.2   203  INH203     -0.2738
     37  C28        8.6280   -4.6370   16.8950 C.3   203  INH203     -0.0171
     38  C29        8.8980   -3.5650   15.8390 C.3   203  INH203     -0.0512
     39  C30        9.5670   -5.8310   16.6960 C.3   203  INH203     -0.0603
     40  C31       10.3440   -3.3980   15.4840 C.3   203  INH203     -0.0650
     41  N4         6.5080   -7.3620   17.4150 N.am  203  INH203     -0.3137
     42  C32        6.2540   -8.4570   18.3350 C.3   203  INH203      0.0147
     43  C33        5.2130   -9.4540   17.8450 C.3   203  INH203     -0.0030
     44  H1         0.1460   -0.1230   12.2500 H     203  INH203      0.0268
     45  H2         0.8830    0.7950   13.6070 H     203  INH203      0.0268
     46  H3         1.8350   -0.4680   12.7550 H     203  INH203      0.0268
     47  H4        -0.3960    2.0720   11.1760 H     203  INH203      0.0268
     48  H5         0.9150    3.2510   10.8350 H     203  INH203      0.0268
     49  H6         0.4040    2.9410   12.5290 H     203  INH203      0.0268
     50  H7         0.8720    0.3110    9.9020 H     203  INH203      0.0268
     51  H8         2.5910   -0.0060   10.3150 H     203  INH203      0.0268
     52  H9         2.1230    1.5540    9.5590 H     203  INH203      0.0268
     53  H10        4.7610    2.6780   13.3230 H     203  INH203      0.1524
     54  H11        6.0830    0.0600   12.8250 H     203  INH203      0.0530
     55  H12        8.1540    1.2480   13.5390 H     203  INH203      0.0332
     56  H13        7.1850    2.7460   13.7450 H     203  INH203      0.0332
     57  H14        8.0520    0.1400   11.2070 H     203  INH203      0.0620
     58  H15        6.9270    4.1930   11.9680 H     203  INH203      0.0620
     59  H16        8.3260    0.6600    8.8170 H     203  INH203      0.0618
     60  H17        7.2010    4.7240    9.5770 H     203  INH203      0.0618
     61  H18        7.8830    2.9510    7.9920 H     203  INH203      0.0618
     62  H19        5.9570    1.4330   15.5430 H     203  INH203      0.0666
     63  H20        7.1990   -0.4610   16.1020 H     203  INH203      0.2101
     64  H21        4.8280   -1.2360   14.5370 H     203  INH203      0.0840
     65  H22        3.8730    0.2090   15.0110 H     203  INH203      0.0840
     66  H23        4.1980   -0.2360   17.1160 H     203  INH203      0.2022
     67  H24        5.8110   -0.5120   16.9370 H     203  INH203      0.2022
     68  H25        4.7340   -2.3080   17.9540 H     203  INH203      0.0952
     69  H26        3.0890   -2.3610   15.4010 H     203  INH203      0.0373
     70  H27        2.5260   -2.1660   17.0950 H     203  INH203      0.0373
     71  H28        3.0360   -4.1560   18.7170 H     203  INH203      0.0621
     72  H29        3.1100   -6.6140   18.9200 H     203  INH203      0.0654
     73  H30        3.1750   -4.5060   14.4560 H     203  INH203      0.0621
     74  H31        3.2490   -6.9540   14.6550 H     203  INH203      0.0654
     75  H32        3.1330   -9.7910   18.2640 H     203  INH203      0.0697
     76  H33        3.7760   -8.2250   18.8640 H     203  INH203      0.0697
     77  H34        5.8890   -3.9820   18.1210 H     203  INH203      0.1496
     78  H35        6.9470   -5.4790   15.8030 H     203  INH203      0.0597
     79  H36        8.8110   -4.2060   17.8900 H     203  INH203      0.0321
     80  H37        8.5240   -2.6040   16.2210 H     203  INH203      0.0266
     81  H38        8.3480   -3.8360   14.9250 H     203  INH203      0.0266
     82  H39        9.3600   -6.5920   17.4630 H     203  INH203      0.0233
     83  H40       10.6110   -5.4960   16.7850 H     203  INH203      0.0233
     84  H41        9.4050   -6.2630   15.6980 H     203  INH203      0.0233
     85  H42       10.4460   -2.6110   14.7220 H     203  INH203      0.0230
     86  H43       10.7360   -4.3460   15.0870 H     203  INH203      0.0230
     87  H44       10.9120   -3.1140   16.3820 H     203  INH203      0.0230
     88  H45        6.3780   -7.5000   16.4330 H     203  INH203      0.1487
     89  H46        7.1990   -8.9970   18.4980 H     203  INH203      0.0463
     90  H47        5.9040   -8.0330   19.2880 H     203  INH203      0.0463
     91  H48        5.3840   -9.6470   16.7760 H     203  INH203      0.0313
     92  H49        5.3270  -10.3910   18.4100 H     203  INH203      0.0313
@<TRIPOS>BOND
     1     1     7    1
     2     1     6    1
     3     2     7    2
     4     3     6    1
     5     3    46    1
     6     3    45    1
     7     3    44    1
     8     4     6    1
     9     4    49    1
    10     4    48    1
    11     4    47    1
    12     5     6    1
    13     5    52    1
    14     5    51    1
    15     5    50    1
    16     7     8   am
    17     8    53    1
    18     8     9    1
    19     9    54    1
    20     9    17    1
    21     9    10    1
    22    10    56    1
    23    10    55    1
    24    10    11    1
    25    11    13   ar
    26    11    12   ar
    27    12    57    1
    28    12    14   ar
    29    13    15   ar
    30    13    58    1
    31    14    59    1
    32    14    16   ar
    33    15    16   ar
    34    15    60    1
    35    16    61    1
    36    17    62    1
    37    17    19    1
    38    17    18    1
    39    18    63    1
    40    19    65    1
    41    19    64    1
    42    19    20    1
    43    20    67    1
    44    20    66    1
    45    20    21    1
    46    21    68    1
    47    21    31    1
    48    21    22    1
    49    22    70    1
    50    22    69    1
    51    22    23    1
    52    23    26   ar
    53    23    24   ar
    54    24    71    1
    55    24    25   ar
    56    25    72    1
    57    25    28   ar
    58    26    27   ar
    59    26    73    1
    60    27    28   ar
    61    27    74    1
    62    28    29    1
    63    29    30    1
    64    30    76    1
    65    30    75    1
    66    30    43    1
    67    31    33   am
    68    31    32    2
    69    33    34    1
    70    33    77    1
    71    34    35    1
    72    34    78    1
    73    34    37    1
    74    35    41   am
    75    35    36    2
    76    37    79    1
    77    37    39    1
    78    37    38    1
    79    38    81    1
    80    38    80    1
    81    38    40    1
    82    39    84    1
    83    39    83    1
    84    39    82    1
    85    40    87    1
    86    40    86    1
    87    40    85    1
    88    41    42    1
    89    41    88    1
    90    42    43    1
    91    42    90    1
    92    42    89    1
    93    43    92    1
    94    43    91    1
