@<TRIPOS>MOLECULE
/tmp/ewbell/vina_1b6m_1b6m_lig/vina/vina2.pdbqt
 49 51 0 0 0
SMALL
GASTEIGER

@<TRIPOS>ATOM
      1  C16        5.4230    0.7000   14.8750 C.3   203  INH203      0.2810
      2  C17        6.8990    0.4190   14.5670 C.3   203  INH203      0.0810
      3  C18        7.3060    1.0370   13.2520 C.ar  203  INH203     -0.0560
      4  C19        7.4060    2.4230   13.1110 C.ar  203  INH203      0.0100
      5  C20        7.6090    3.0020   11.8670 C.ar  203  INH203      0.0370
      6  C21        7.4400    0.2490   12.1110 C.ar  203  INH203      0.0100
      7  C22        7.6420    0.8160   10.8680 C.ar  203  INH203      0.0370
      8  C23        7.7190    2.1890   10.7470 C.ar  203  INH203      0.0680
      9  O4         7.8550    2.7180    9.4870 O.3   203  INH203     -0.3510
     10  C24        7.4560    4.0480    9.1980 C.3   203  INH203      0.1770
     11  C25        4.6170    0.5280   13.5910 C.2   203  INH203      0.2490
     12  O5         4.3510   -0.5900   13.1430 O.2   203  INH203     -0.2710
     13  N3         4.2540    1.6610   13.0000 N.am  203  INH203     -0.3460
     14  C26        3.5030    1.7120   11.7370 C.3   203  INH203      0.1800
     15  C27        3.8980    3.0570   11.1380 C.2   203  INH203      0.2400
     16  O6         3.6820    4.1020   11.7560 O.2   203  INH203     -0.2710
     17  N4         4.5210    3.0210    9.9640 N.am  203  INH203     -0.3590
     18  C32        4.9370    4.2480    9.3080 C.3   203  INH203      0.1250
     19  C33        6.1540    4.0920    8.4070 C.3   203  INH203      0.0460
     20  H34        4.5040    2.5240   13.4370 H     203  INH203      0.1630
     21  H45        4.7050    2.1400    9.5290 H     203  INH203      0.1620
     22  N2         4.9570   -0.0270   16.0850 N.4   203  INH203     -0.0600
     23  H24        3.9970   -0.2970   15.9370 H     203  INH203      0.2780
     24  H23        5.0120    0.6050   16.8680 H     203  INH203      0.2780
     25  C15        5.7230   -1.2380   16.4240 C.3   203  INH203      0.2660
     26  C14        4.7180   -2.3750   16.5590 C.3   203  INH203      0.1660
     27  C6         5.3290   -3.6910   16.1110 C.3   203  INH203      0.1210
     28  N1         4.3650   -4.5350   15.3950 N.am  203  INH203     -0.3290
     29  C5         3.9600   -5.7130   15.8600 C.2   203  INH203      0.3610
     30  O2         2.9070   -6.2500   15.4810 O.2   203  INH203     -0.2380
     31  H10        3.9980   -4.2110   14.5230 H     203  INH203      0.1650
     32  O1         4.7540   -6.2680   16.7660 O.3   203  INH203     -0.2940
     33  C4         4.1970   -6.5250   18.0710 C.3   203  INH203      0.0610
     34  C1         3.5420   -7.9070   18.1160 C.3   203  INH203      0.0460
     35  C2         5.3510   -6.4970   19.0630 C.3   203  INH203      0.0460
     36  C3         3.1970   -5.4260   18.4400 C.3   203  INH203      0.0460
     37  C7         6.5400   -3.4160   15.2300 C.3   203  INH203      0.0660
     38  C8         7.8340   -3.7530   15.8810 C.ar  203  INH203     -0.0560
     39  C10        7.9110   -4.7920   16.8000 C.ar  203  INH203      0.0070
     40  C12        9.1040   -5.0860   17.4350 C.ar  203  INH203      0.0010
     41  C13       10.2350   -4.3320   17.1570 C.ar  203  INH203      0.0000
     42  C11       10.1690   -3.2930   16.2370 C.ar  203  INH203      0.0010
     43  C9         8.9730   -3.0070   15.6070 C.ar  203  INH203      0.0070
     44  O3         3.5790   -2.0930   15.7430 O.3   203  INH203     -0.3920
     45  H20        3.8400   -2.0710   14.8310 H     203  INH203      0.2100
     46  C28        1.9670    1.6770   11.9290 C.3   203  INH203      0.0130
     47  C30        1.2890    2.6270   10.9360 C.3   203  INH203      0.0120
     48  C29        1.4490    0.2510   11.7390 C.3   203  INH203      0.0020
     49  C31        0.5650   -0.2370   12.8470 C.3   203  INH203      0.0050
@<TRIPOS>BOND
     1    19    10    1
     2    19    18    1
     3    10     9    1
     4    18    17    1
     5     9     8    1
     6    21    17    1
     7    17    15   am
     8     8     7   ar
     9     8     5   ar
    10     7     6   ar
    11    47    46    1
    12    15    14    1
    13    15    16    2
    14    14    46    1
    15    14    13    1
    16    48    46    1
    17    48    49    1
    18     5     4   ar
    19     6     3   ar
    20    13    20    1
    21    13    11   am
    22     4     3   ar
    23    12    11    2
    24     3     2    1
    25    11     1    1
    26    31    28    1
    27     2     1    1
    28    45    44    1
    29     1    22    1
    30    37    38    1
    31    37    27    1
    32    28    29   am
    33    28    27    1
    34    30    29    2
    35    43    38   ar
    36    43    42   ar
    37    44    26    1
    38    29    32    1
    39    38    39   ar
    40    23    22    1
    41    22    25    1
    42    22    24    1
    43    27    26    1
    44    42    41   ar
    45    25    26    1
    46    32    33    1
    47    39    40   ar
    48    41    40   ar
    49    33    34    1
    50    33    36    1
    51    33    35    1
