@<TRIPOS>MOLECULE
/tmp/ewbell/vina_1b6m_1b6m_lig/vina/vina4.pdbqt
 49 51 0 0 0
SMALL
GASTEIGER

@<TRIPOS>ATOM
      1  C16        5.4870    0.5470   14.5630 C.3   203  INH203      0.2810
      2  C17        6.9930    0.3610   14.3350 C.3   203  INH203      0.0810
      3  C18        7.4370    1.0440   13.0650 C.ar  203  INH203     -0.0560
      4  C19        7.4640    2.4370   12.9720 C.ar  203  INH203      0.0100
      5  C20        7.7040    3.0680   11.7610 C.ar  203  INH203      0.0370
      6  C21        7.6820    0.3030   11.9110 C.ar  203  INH203      0.0100
      7  C22        7.9220    0.9220   10.7000 C.ar  203  INH203      0.0370
      8  C23        7.9250    2.3000   10.6250 C.ar  203  INH203      0.0680
      9  O4         8.1020    2.8780    9.3920 O.3   203  INH203     -0.3510
     10  C24        7.6440    4.1920    9.1190 C.3   203  INH203      0.1770
     11  C25        4.7680    0.3720   13.2290 C.2   203  INH203      0.2490
     12  O5         4.5940   -0.7430   12.7330 O.2   203  INH203     -0.2710
     13  N3         4.3730    1.5020   12.6520 N.am  203  INH203     -0.3460
     14  C26        3.6950    1.5530   11.3490 C.3   203  INH203      0.1800
     15  C27        4.0440    2.9370   10.8150 C.2   203  INH203      0.2400
     16  O6         3.7320    3.9470   11.4500 O.2   203  INH203     -0.2710
     17  N4         4.7340    2.9750    9.6800 N.am  203  INH203     -0.3590
     18  C32        5.1150    4.2450    9.0870 C.3   203  INH203      0.1250
     19  C33        6.3890    4.1880    8.2550 C.3   203  INH203      0.0460
     20  H34        4.5470    2.3630   13.1290 H     203  INH203      0.1630
     21  H45        4.9940    2.1210    9.2290 H     203  INH203      0.1620
     22  N2         4.9960   -0.2460   15.7210 N.4   203  INH203     -0.0600
     23  H24        4.1100    0.1400   16.0100 H     203  INH203      0.2780
     24  H23        5.6650   -0.1500   16.4690 H     203  INH203      0.2780
     25  C15        4.8050   -1.6830   15.4640 C.3   203  INH203      0.2660
     26  C14        5.9880   -2.4080   16.0920 C.3   203  INH203      0.1660
     27  C6         5.7230   -3.9000   16.1760 C.3   203  INH203      0.1210
     28  N1         6.2480   -4.4880   17.4150 N.am  203  INH203     -0.3290
     29  C5         7.4170   -5.1190   17.4680 C.2   203  INH203      0.3610
     30  O2         8.0330   -5.2860   18.5330 O.2   203  INH203     -0.2380
     31  H10        5.7060   -4.4100   18.2510 H     203  INH203      0.1650
     32  O1         7.8850   -5.5460   16.3030 O.3   203  INH203     -0.2940
     33  C4         9.2290   -5.1680   15.9460 C.3   203  INH203      0.0610
     34  C1        10.2500   -5.9590   16.7670 C.3   203  INH203      0.0460
     35  C2         9.4130   -5.5090   14.4740 C.3   203  INH203      0.0460
     36  C3         9.4170   -3.6600   16.1330 C.3   203  INH203      0.0460
     37  C7         4.2270   -4.1590   16.0670 C.3   203  INH203      0.0660
     38  C8         3.7940   -5.4190   16.7280 C.ar  203  INH203     -0.0560
     39  C10        3.2740   -5.3960   18.0160 C.ar  203  INH203      0.0070
     40  C12        2.9020   -6.5680   18.6490 C.ar  203  INH203      0.0010
     41  C13        3.0580   -7.7820   17.9940 C.ar  203  INH203      0.0000
     42  C11        3.5760   -7.8150   16.7050 C.ar  203  INH203      0.0010
     43  C9         3.9430   -6.6380   16.0810 C.ar  203  INH203      0.0070
     44  O3         6.2010   -1.9010   17.4120 O.3   203  INH203     -0.3920
     45  H20        6.9070   -1.2670   17.3980 H     203  INH203      0.2100
     46  C28        2.1540    1.4240   11.4480 C.3   203  INH203      0.0130
     47  C30        1.6370    0.4470   10.3870 C.3   203  INH203      0.0120
     48  C29        1.7580    0.9500   12.8470 C.3   203  INH203      0.0020
     49  C31        0.9420   -0.3070   12.8650 C.3   203  INH203      0.0050
@<TRIPOS>BOND
     1    19    18    1
     2    19    10    1
     3    18    17    1
     4    10     9    1
     5    21    17    1
     6     9     8    1
     7    17    15   am
     8    47    46    1
     9     8     7   ar
    10     8     5   ar
    11     7     6   ar
    12    15    14    1
    13    15    16    2
    14    14    46    1
    15    14    13    1
    16    46    48    1
    17     5     4   ar
    18     6     3   ar
    19    13    20    1
    20    13    11   am
    21    12    11    2
    22    48    49    1
    23     4     3   ar
    24     3     2    1
    25    11     1    1
    26     2     1    1
    27    35    33    1
    28     1    22    1
    29    25    22    1
    30    25    26    1
    31    22    23    1
    32    22    24    1
    33    33    36    1
    34    33    32    1
    35    33    34    1
    36    37    27    1
    37    37    38    1
    38    43    42   ar
    39    43    38   ar
    40    26    27    1
    41    26    44    1
    42    27    28    1
    43    32    29    1
    44    42    41   ar
    45    38    39   ar
    46    45    44    1
    47    28    29   am
    48    28    31    1
    49    29    30    2
    50    41    40   ar
    51    39    40   ar
