@<TRIPOS>MOLECULE
/tmp/ewbell/vina_1b6m_1b6m_lig/vina/vina1.pdbqt
 49 51 0 0 0
SMALL
GASTEIGER

@<TRIPOS>ATOM
      1  C16        4.9610   -2.0810   16.7070 C.3   203  INH203      0.2810
      2  C17        3.5790   -2.4950   16.1860 C.3   203  INH203      0.0810
      3  C18        3.3680   -3.9820   16.3320 C.ar  203  INH203     -0.0560
      4  C19        3.2100   -4.5630   17.5920 C.ar  203  INH203      0.0100
      5  C20        3.1890   -5.9410   17.7470 C.ar  203  INH203      0.0370
      6  C21        3.4800   -4.8250   15.2290 C.ar  203  INH203      0.0100
      7  C22        3.4600   -6.1980   15.3720 C.ar  203  INH203      0.0370
      8  C23        3.3230   -6.7530   16.6280 C.ar  203  INH203      0.0680
      9  O4         3.3730   -8.1220   16.7370 O.3   203  INH203     -0.3510
     10  C24        3.7340   -8.7520   17.9550 C.3   203  INH203      0.1770
     11  C25        5.9840   -3.1150   16.2480 C.2   203  INH203      0.2490
     12  O5         6.3900   -3.1470   15.0840 O.2   203  INH203     -0.2710
     13  N3         6.3750   -3.9720   17.1850 N.am  203  INH203     -0.3460
     14  C26        7.3260   -5.0650   16.9390 C.3   203  INH203      0.1800
     15  C27        6.9600   -6.1050   17.9900 C.2   203  INH203      0.2400
     16  O6         7.0030   -5.8220   19.1900 O.2   203  INH203     -0.2710
     17  N4         6.5510   -7.2860   17.5350 N.am  203  INH203     -0.3590
     18  C32        6.1810   -8.3470   18.4560 C.3   203  INH203      0.1250
     19  C33        5.1480   -9.3190   17.9030 C.3   203  INH203      0.0460
     20  H34        6.0010   -3.8690   18.1070 H     203  INH203      0.1630
     21  H45        6.4980   -7.4450   16.5490 H     203  INH203      0.1620
     22  N2         5.2550   -0.6490   16.4320 N.4   203  INH203     -0.0600
     23  H24        6.2510   -0.5540   16.3050 H     203  INH203      0.2780
     24  H23        4.9650   -0.1130   17.2340 H     203  INH203      0.2780
     25  C15        4.5900   -0.0880   15.2440 C.3   203  INH203      0.2660
     26  C14        5.6810    0.5050   14.3630 C.3   203  INH203      0.1660
     27  C6         5.4190    0.1990   12.8990 C.3   203  INH203      0.1210
     28  N1         6.6470   -0.1550   12.1780 N.am  203  INH203     -0.3290
     29  C5         7.2540    0.6840   11.3430 C.2   203  INH203      0.3610
     30  O2         8.4480    0.5560   11.0260 O.2   203  INH203     -0.2380
     31  H10        7.0420   -1.0620   12.3190 H     203  INH203      0.1650
     32  O1         6.5000    1.6740   10.8850 O.3   203  INH203     -0.2940
     33  C4         6.9310    3.0220   11.1610 C.3   203  INH203      0.0610
     34  C1         7.8110    3.5500   10.0270 C.3   203  INH203      0.0460
     35  C2         5.6780    3.8820   11.2510 C.3   203  INH203      0.0460
     36  C3         7.6660    3.0730   12.5030 C.3   203  INH203      0.0460
     37  C7         4.4030   -0.9300   12.7890 C.3   203  INH203      0.0660
     38  C8         3.0800   -0.4880   12.2730 C.ar  203  INH203     -0.0560
     39  C10        1.9250   -0.7150   13.0100 C.ar  203  INH203      0.0070
     40  C12        0.6880   -0.3370   12.5180 C.ar  203  INH203      0.0010
     41  C13        0.5990    0.2690   11.2730 C.ar  203  INH203      0.0000
     42  C11        1.7500    0.5030   10.5300 C.ar  203  INH203      0.0010
     43  C9         2.9800    0.1230   11.0300 C.ar  203  INH203      0.0070
     44  O3         6.9410   -0.0590   14.7350 O.3   203  INH203     -0.3920
     45  H20        6.9210   -0.3030   15.6510 H     203  INH203      0.2100
     46  C28        8.8060   -4.6520   17.1320 C.3   203  INH203      0.0130
     47  C30        9.5980   -5.8030   17.7610 C.3   203  INH203      0.0120
     48  C29        9.4190   -4.2550   15.7880 C.3   203  INH203      0.0020
     49  C31        9.3930   -5.3400   14.7540 C.3   203  INH203      0.0050
@<TRIPOS>BOND
     1    34    33    1
     2    42    43   ar
     3    42    41   ar
     4    32    33    1
     5    32    29    1
     6    30    29    2
     7    43    38   ar
     8    33    35    1
     9    33    36    1
    10    41    40   ar
    11    29    28   am
    12    28    31    1
    13    28    27    1
    14    38    37    1
    15    38    39   ar
    16    40    39   ar
    17    37    27    1
    18    27    26    1
    19    26    44    1
    20    26    25    1
    21    44    45    1
    22    49    48    1
    23    12    11    2
    24     6     7   ar
    25     6     3   ar
    26    25    22    1
    27     7     8   ar
    28    48    46    1
    29     2     3    1
    30     2     1    1
    31    11     1    1
    32    11    13   am
    33    23    22    1
    34     3     4   ar
    35    22     1    1
    36    22    24    1
    37    21    17    1
    38     8     9    1
    39     8     5   ar
    40     9    10    1
    41    14    46    1
    42    14    13    1
    43    14    15    1
    44    46    47    1
    45    13    20    1
    46    17    15   am
    47    17    18    1
    48     4     5   ar
    49    19    10    1
    50    19    18    1
    51    15    16    2
