@<TRIPOS>MOLECULE
/tmp/ewbell/vina_1b6m_1b6m_lig/vina/vina5.pdbqt
 49 51 0 0 0
SMALL
GASTEIGER

@<TRIPOS>ATOM
      1  C16        3.4760   -0.6960   12.8100 C.3   203  INH203      0.2810
      2  C17        1.9430   -0.7230   12.7470 C.3   203  INH203      0.0810
      3  C18        1.4150    0.4130   11.9050 C.ar  203  INH203     -0.0560
      4  C19        1.6010    0.4260   10.5210 C.ar  203  INH203      0.0100
      5  C20        1.2740    1.5420    9.7660 C.ar  203  INH203      0.0370
      6  C21        0.8690    1.5460   12.5060 C.ar  203  INH203      0.0100
      7  C22        0.5400    2.6620   11.7620 C.ar  203  INH203      0.0370
      8  C23        0.7500    2.6620   10.3980 C.ar  203  INH203      0.0680
      9  O4         0.4710    3.8130    9.7030 O.3   203  INH203     -0.3510
     10  C24        1.0870    4.0900    8.4570 C.3   203  INH203      0.1770
     11  C25        3.9310    0.7490   12.9840 C.2   203  INH203      0.2490
     12  O5         3.8380    1.3270   14.0700 O.2   203  INH203     -0.2710
     13  N3         4.4050    1.3250   11.8850 N.am  203  INH203     -0.3460
     14  C26        4.8620    2.7210   11.8330 C.3   203  INH203      0.1800
     15  C27        4.6610    3.1110   10.3740 C.2   203  INH203      0.2400
     16  O6         5.2320    2.4880    9.4770 O.2   203  INH203     -0.2710
     17  N4         3.8110    4.1070   10.1410 N.am  203  INH203     -0.3590
     18  C32        3.5510    4.5570    8.7840 C.3   203  INH203      0.1250
     19  C33        2.1670    5.1580    8.5810 C.3   203  INH203      0.0460
     20  H34        4.4530    0.7800   11.0480 H     203  INH203      0.1630
     21  H45        3.3460    4.5510   10.9070 H     203  INH203      0.1620
     22  N2         4.0120   -1.7080   13.7580 N.4   203  INH203     -0.0600
     23  H24        3.4510   -2.5420   13.6750 H     203  INH203      0.2780
     24  H23        3.9260   -1.3370   14.6910 H     203  INH203      0.2780
     25  C15        5.4200   -2.0850   13.5460 C.3   203  INH203      0.2660
     26  C14        6.2130   -1.5080   14.7110 C.3   203  INH203      0.1660
     27  C6         6.7910   -2.6170   15.5730 C.3   203  INH203      0.1210
     28  N1         8.1700   -2.3370   15.9870 N.am  203  INH203     -0.3290
     29  C5         9.1400   -3.2440   15.9110 C.2   203  INH203      0.3610
     30  O2        10.3410   -2.9320   15.8970 O.2   203  INH203     -0.2380
     31  H10        8.3900   -1.4280   16.3400 H     203  INH203      0.1650
     32  O1         8.7320   -4.5040   15.8360 O.3   203  INH203     -0.2940
     33  C4         9.1110   -5.3910   16.9070 C.3   203  INH203      0.0610
     34  C1         7.9170   -5.6780   17.8190 C.3   203  INH203      0.0460
     35  C2         9.5650   -6.6960   16.2670 C.3   203  INH203      0.0460
     36  C3        10.2780   -4.7920   17.6960 C.3   203  INH203      0.0460
     37  C7         5.9080   -2.8230   16.7960 C.3   203  INH203      0.0660
     38  C8         4.7970   -3.7850   16.5700 C.ar  203  INH203     -0.0560
     39  C10        5.0460   -5.0260   15.9980 C.ar  203  INH203      0.0070
     40  C12        4.0120   -5.9110   15.7520 C.ar  203  INH203      0.0010
     41  C13        2.7100   -5.5530   16.0730 C.ar  203  INH203      0.0000
     42  C11        2.4510   -4.3140   16.6480 C.ar  203  INH203      0.0010
     43  C9         3.4920   -3.4380   16.8900 C.ar  203  INH203      0.0070
     44  O3         5.3480   -0.7020   15.5140 O.3   203  INH203     -0.3920
     45  H20        5.2360   -1.1070   16.3650 H     203  INH203      0.2100
     46  C28        6.3560    2.8960   12.2010 C.3   203  INH203      0.0130
     47  C30        7.1570    1.6680   11.7580 C.3   203  INH203      0.0120
     48  C29        6.9120    4.1600   11.5440 C.3   203  INH203      0.0020
     49  C31        8.1040    3.9270   10.6670 C.3   203  INH203      0.0050
@<TRIPOS>BOND
     1    10    19    1
     2    10     9    1
     3    19    18    1
     4    18    17    1
     5    16    15    2
     6     9     8    1
     7     5     8   ar
     8     5     4   ar
     9    17    15   am
    10    17    21    1
    11    15    14    1
    12     8     7   ar
    13     4     3   ar
    14    49    48    1
    15    20    13    1
    16    48    46    1
    17    47    46    1
    18     7     6   ar
    19    14    13    1
    20    14    46    1
    21    13    11   am
    22     3     6   ar
    23     3     2    1
    24     2     1    1
    25     1    11    1
    26     1    22    1
    27    11    12    2
    28    25    22    1
    29    25    26    1
    30    23    22    1
    31    22    24    1
    32    26    44    1
    33    26    27    1
    34    44    45    1
    35    27    28    1
    36    27    37    1
    37    40    39   ar
    38    40    41   ar
    39    32    29    1
    40    32    33    1
    41    30    29    2
    42    29    28   am
    43    28    31    1
    44    39    38   ar
    45    41    42   ar
    46    35    33    1
    47    38    37    1
    48    38    43   ar
    49    42    43   ar
    50    33    36    1
    51    33    34    1
