@<TRIPOS>MOLECULE
/tmp/ewbell/vina_1b6m_1b6m_lig/vina/vina3.pdbqt
 49 51 0 0 0
SMALL
GASTEIGER

@<TRIPOS>ATOM
      1  C16        4.4400   -2.5370   16.4270 C.3   203  INH203      0.2810
      2  C17        3.1290   -3.1820   15.9600 C.3   203  INH203      0.0810
      3  C18        3.1310   -4.6680   16.2230 C.ar  203  INH203     -0.0560
      4  C19        3.0630   -5.1660   17.5260 C.ar  203  INH203      0.0100
      5  C20        3.2390   -6.5170   17.7850 C.ar  203  INH203      0.0370
      6  C21        3.3580   -5.5700   15.1850 C.ar  203  INH203      0.0100
      7  C22        3.5330   -6.9170   15.4330 C.ar  203  INH203      0.0370
      8  C23        3.4820   -7.3860   16.7300 C.ar  203  INH203      0.0680
      9  O4         3.7260   -8.7220   16.9430 O.3   203  INH203     -0.3510
     10  C24        4.1790   -9.1980   18.1990 C.3   203  INH203      0.1770
     11  C25        5.5980   -3.4500   16.0330 C.2   203  INH203      0.2490
     12  O5         5.9990   -3.5140   14.8700 O.2   203  INH203     -0.2710
     13  N3         6.1100   -4.1670   17.0270 N.am  203  INH203     -0.3460
     14  C26        7.2060   -5.1300   16.8510 C.3   203  INH203      0.1800
     15  C27        6.9950   -6.1270   17.9840 C.2   203  INH203      0.2400
     16  O6         7.0030   -5.7480   19.1570 O.2   203  INH203     -0.2710
     17  N4         6.7570   -7.3850   17.6270 N.am  203  INH203     -0.3590
     18  C32        6.5450   -8.4130   18.6310 C.3   203  INH203      0.1250
     19  C33        5.6580   -9.5620   18.1710 C.3   203  INH203      0.0460
     20  H34        5.7290   -4.0460   17.9440 H     203  INH203      0.1630
     21  H45        6.7230   -7.6270   16.6570 H     203  INH203      0.1620
     22  N2         4.5260   -1.1050   16.0390 N.4   203  INH203     -0.0600
     23  H24        5.4950   -0.8280   16.0810 H     203  INH203      0.2780
     24  H23        3.9940   -0.5690   16.7060 H     203  INH203      0.2780
     25  C15        4.0200   -0.7870   14.6930 C.3   203  INH203      0.2660
     26  C14        4.0420    0.7300   14.5580 C.3   203  INH203      0.1660
     27  C6         4.7320    1.1480   13.2710 C.3   203  INH203      0.1210
     28  N1         4.3450    2.4980   12.8480 N.am  203  INH203     -0.3290
     29  C5         3.4150    2.7200   11.9230 C.2   203  INH203      0.3610
     30  O2         2.8250    3.8080   11.8230 O.2   203  INH203     -0.2380
     31  H10        4.7990    3.2820   13.2700 H     203  INH203      0.1650
     32  O1         3.1520    1.6940   11.1250 O.3   203  INH203     -0.2940
     33  C4         1.7720    1.3110   10.9650 C.3   203  INH203      0.0610
     34  C1         1.0510    1.3080   12.3140 C.3   203  INH203      0.0460
     35  C2         1.1220    2.3520   10.0640 C.3   203  INH203      0.0460
     36  C3         1.6830   -0.0580   10.2870 C.3   203  INH203      0.0460
     37  C7         6.2420    1.0680   13.4540 C.3   203  INH203      0.0660
     38  C8         7.0070    1.5130   12.2590 C.ar  203  INH203     -0.0560
     39  C10        7.1980    2.8650   12.0080 C.ar  203  INH203      0.0070
     40  C12        7.8790    3.2850   10.8800 C.ar  203  INH203      0.0010
     41  C13        8.3690    2.3460    9.9840 C.ar  203  INH203      0.0000
     42  C11        8.1850    0.9900   10.2270 C.ar  203  INH203      0.0010
     43  C9         7.5050    0.5810   11.3580 C.ar  203  INH203      0.0070
     44  O3         4.7530    1.2890   15.6660 O.3   203  INH203     -0.3920
     45  H20        5.6830    1.2910   15.4770 H     203  INH203      0.2100
     46  C28        8.6130   -4.4980   16.9900 C.3   203  INH203      0.0130
     47  C30        9.5590   -5.4670   17.7070 C.3   203  INH203      0.0120
     48  C29        9.1640   -4.1390   15.6090 C.3   203  INH203      0.0020
     49  C31        9.3540   -5.3130   14.6960 C.3   203  INH203      0.0050
@<TRIPOS>BOND
     1    41    42   ar
     2    41    40   ar
     3    35    33    1
     4    42    43   ar
     5    36    33    1
     6    40    39   ar
     7    33    32    1
     8    33    34    1
     9    32    29    1
    10    43    38   ar
    11    30    29    2
    12    29    28   am
    13    39    38   ar
    14    38    37    1
    15    28    31    1
    16    28    27    1
    17    27    37    1
    18    27    26    1
    19    26    25    1
    20    26    44    1
    21    25    22    1
    22    49    48    1
    23    12    11    2
    24     6     7   ar
    25     6     3   ar
    26     7     8   ar
    27    45    44    1
    28    48    46    1
    29     2     3    1
    30     2     1    1
    31    11     1    1
    32    11    13   am
    33    22    23    1
    34    22     1    1
    35    22    24    1
    36     3     4   ar
    37    21    17    1
    38     8     9    1
    39     8     5   ar
    40    14    46    1
    41    14    13    1
    42    14    15    1
    43     9    10    1
    44    46    47    1
    45    13    20    1
    46     4     5   ar
    47    17    15   am
    48    17    18    1
    49    15    16    2
    50    19    10    1
    51    19    18    1
