@<TRIPOS>MOLECULE
./ligand/1o5a_lig.pdb
 42 45 0 0 0
SMALL
GASTEIGER

@<TRIPOS>ATOM
      1  C1         8.8380    1.4080   24.7320 C.ar  260  INH260      0.0615
      2  C2         9.5770    1.2570   23.5180 C.ar  260  INH260     -0.0451
      3  C3        10.1720    2.3630   22.8700 C.ar  260  INH260     -0.0370
      4  C4        10.0190    3.6070   23.4440 C.ar  260  INH260      0.0470
      5  C5         9.3150    3.7560   24.6070 C.ar  260  INH260      0.0011
      6  C6         8.7160    2.6960   25.2720 C.ar  260  INH260     -0.0378
      7  C7         8.2460    0.3110   25.4050 C.2   260  INH260      0.2662
      8  N1         7.8690    0.4230   26.6500 N.pl3 260  INH260     -0.2497
      9  N2         8.0680   -0.8270   24.7980 N.2   260  INH260     -0.2884
     10  N3        10.4730    4.7830   23.0820 N.ar  260  INH260     -0.3540
     11  C8         9.3530    5.0680   24.9460 C.ar  260  INH260     -0.0285
     12  C9        10.0970    5.6970   23.9540 C.ar  260  INH260      0.0512
     13  C10       10.2890    7.0770   23.8120 C.ar  260  INH260      0.0456
     14  C11        9.9050    7.9410   24.8400 C.ar  260  INH260     -0.0489
     15  C12       10.0830    9.3080   24.7200 C.ar  260  INH260     -0.0603
     16  C13       10.6510    9.8240   23.5680 C.ar  260  INH260     -0.0503
     17  C14       11.0550    8.9920   22.5170 C.ar  260  INH260      0.0295
     18  C15       10.8670    7.6080   22.6410 C.ar  260  INH260      0.1957
     19  O1        11.2590    6.7530   21.6380 O.3   260  INH260     -0.2866
     20  C16       11.6950    9.6290   21.4470 C.ar  260  INH260     -0.0142
     21  C17       12.9140    9.1540   20.9830 C.ar  260  INH260     -0.0539
     22  C18       13.6140    9.8380   19.9820 C.ar  260  INH260     -0.0612
     23  C19       13.0840   10.9980   19.4470 C.ar  260  INH260     -0.0617
     24  C20       11.8650   11.4590   19.9100 C.ar  260  INH260     -0.0612
     25  C21       11.1790   10.7870   20.8920 C.ar  260  INH260     -0.0539
     26  H1         9.6840    0.2700   23.0840 H     260  INH260      0.0627
     27  H2        10.7310    2.2370   21.9500 H     260  INH260      0.0638
     28  H3         8.1650    2.8600   26.1910 H     260  INH260      0.0632
     29  H4         7.4390   -0.3790   27.1320 H     260  INH260      0.2883
     30  H5         8.0010    1.3140   27.1500 H     260  INH260      0.2883
     31  H6         8.3580   -0.9380   23.8160 H     260  INH260      0.3009
     32  H7         7.6370   -1.6170   25.3000 H     260  INH260      0.3009
     33  H8        11.0390    4.9650   22.2410 H     260  INH260      0.1659
     34  H9         8.8950    5.5340   25.8170 H     260  INH260      0.0645
     35  H10        9.4620    7.5360   25.7430 H     260  INH260      0.0625
     36  H11        9.7800    9.9700   25.5230 H     260  INH260      0.0618
     37  H12       10.7860   10.8960   23.4780 H     260  INH260      0.0625
     38  H13       13.3290    8.2430   21.4000 H     260  INH260      0.0624
     39  H14       14.5660    9.4600   19.6280 H     260  INH260      0.0618
     40  H15       13.6180   11.5390   18.6740 H     260  INH260      0.0618
     41  H16       11.4440   12.3660   19.4910 H     260  INH260      0.0618
     42  H17       10.2240   11.1680   21.2360 H     260  INH260      0.0624
@<TRIPOS>BOND
     1     1     7    1
     2     1     6   ar
     3     1     2   ar
     4     2    26    1
     5     2     3   ar
     6     3    27    1
     7     3     4   ar
     8     4    10   ar
     9     4     5   ar
    10     5    11   ar
    11     5     6   ar
    12     6    28    1
    13     7     9    2
    14     7     8    1
    15     8    30    1
    16     8    29    1
    17     9    32    1
    18     9    31    1
    19    10    12   ar
    20    10    33    1
    21    11    34    1
    22    11    12   ar
    23    12    13    1
    24    13    18   ar
    25    13    14   ar
    26    14    35    1
    27    14    15   ar
    28    15    36    1
    29    15    16   ar
    30    16    37    1
    31    16    17   ar
    32    17    20    1
    33    17    18   ar
    34    18    19    1
    35    20    25   ar
    36    20    21   ar
    37    21    38    1
    38    21    22   ar
    39    22    39    1
    40    22    23   ar
    41    23    40    1
    42    23    24   ar
    43    24    41    1
    44    24    25   ar
    45    25    42    1
