@<TRIPOS>MOLECULE
/tmp/ewbell/vina_1o5a_1o5a_lig/vina/vina3.pdbqt
 31 34 0 0 0
SMALL
GASTEIGER

@<TRIPOS>ATOM
      1  C1        16.1810   13.5010   19.6610 C.ar  260  INH260      0.0080
      2  C2        17.3610   14.3040   19.7440 C.ar  260  INH260      0.0170
      3  C3        18.2510   14.2010   20.8370 C.ar  260  INH260      0.0310
      4  C4        17.9490   13.2970   21.8330 C.ar  260  INH260      0.0430
      5  C5        16.8230   12.5250   21.7560 C.ar  260  INH260     -0.0060
      6  C6        15.9240   12.5970   20.7010 C.ar  260  INH260      0.0290
      7  N3        18.5930   12.9790   22.9300 N.ar  260  INH260     -0.3550
      8  C8        16.7990   11.7220   22.8470 C.ar  260  INH260      0.0440
      9  C9        17.9400   12.0350   23.5770 C.ar  260  INH260      0.0460
     10  H8        19.4790   13.4050   23.2410 H     260  INH260      0.1660
     11  C10       18.2670   11.5520   24.8510 C.ar  260  INH260      0.0250
     12  C15       19.5870   11.1650   25.1580 C.ar  260  INH260      0.0890
     13  C14       19.8970   10.6810   26.4370 C.ar  260  INH260      0.0080
     14  C13       18.8770   10.6010   27.3920 C.ar  260  INH260      0.0150
     15  C12       17.5790   10.9800   27.0960 C.ar  260  INH260      0.0020
     16  C11       17.2770   11.4520   25.8310 C.ar  260  INH260      0.0160
     17  O1        20.5560   11.2500   24.1850 O.3   260  INH260     -0.3590
     18  H         20.6090   12.0120   23.6430 H     260  INH260      0.2170
     19  C16       21.1450   10.1850   26.8340 C.ar  260  INH260     -0.0230
     20  C21       21.3990    9.8660   28.1570 C.ar  260  INH260      0.0120
     21  C20       22.5900    9.2860   28.5210 C.ar  260  INH260      0.0010
     22  C19       23.5670    9.0120   27.5800 C.ar  260  INH260      0.0000
     23  C18       23.3370    9.3300   26.2550 C.ar  260  INH260      0.0010
     24  C17       22.1220    9.9200   25.8850 C.ar  260  INH260      0.0120
     25  C7        15.2840   13.5790   18.5670 C.2   260  INH260      0.1020
     26  N2        15.6830   14.0080   17.4050 N.2   260  INH260     -0.3850
     27  H7        15.0190   14.0580   16.6170 H     260  INH260      0.1570
     28  H6        16.6630   14.2980   17.2720 H     260  INH260      0.1570
     29  N1        14.0360   13.2180   18.7080 N.pl3 260  INH260     -0.3850
     30  H5        13.4060   13.2130   17.8930 H     260  INH260      0.1570
     31  H4        13.6840   12.9360   19.6340 H     260  INH260      0.1570
@<TRIPOS>BOND
     1    27    26    1
     2    28    26    1
     3    26    25    2
     4    30    29    1
     5    25    29    1
     6    25     1    1
     7    29    31    1
     8     1     2   ar
     9     1     6   ar
    10     2     3   ar
    11     6     5   ar
    12     3     4   ar
    13     5     4   ar
    14     5     8   ar
    15     4     7   ar
    16     8     9   ar
    17     7    10    1
    18     7     9   ar
    19     9    11    1
    20    18    17    1
    21    17    12    1
    22    11    12   ar
    23    11    16   ar
    24    12    13   ar
    25    16    15   ar
    26    24    23   ar
    27    24    19   ar
    28    23    22   ar
    29    13    19    1
    30    13    14   ar
    31    19    20   ar
    32    15    14   ar
    33    22    21   ar
    34    20    21   ar
