@<TRIPOS>MOLECULE
/tmp/ewbell/vina_1o5a_1o5a_lig/vina/vina5.pdbqt
 31 34 0 0 0
SMALL
GASTEIGER

@<TRIPOS>ATOM
      1  C1         8.6610    1.2850   24.8070 C.ar  260  INH260      0.0080
      2  C2         9.4630    1.4510   23.6350 C.ar  260  INH260      0.0170
      3  C3         9.8410    2.7320   23.1720 C.ar  260  INH260      0.0310
      4  C4         9.4100    3.8300   23.8850 C.ar  260  INH260      0.0430
      5  C5         8.6450    3.6760   25.0080 C.ar  260  INH260     -0.0060
      6  C6         8.2530    2.4370   25.4950 C.ar  260  INH260      0.0290
      7  N3         9.6240    5.1110   23.7040 N.ar  260  INH260     -0.3550
      8  C8         8.3960    4.9100   25.5090 C.ar  260  INH260      0.0440
      9  C9         9.0320    5.8050   24.6550 C.ar  260  INH260      0.0460
     10  H8        10.1730    5.5160   22.9310 H     260  INH260      0.1660
     11  C10        8.9380    7.2010   24.7000 C.ar  260  INH260      0.0250
     12  C15        8.8190    7.9540   23.5140 C.ar  260  INH260      0.0890
     13  C14        8.7300    9.3520   23.5760 C.ar  260  INH260      0.0080
     14  C13        8.7530    9.9730   24.8300 C.ar  260  INH260      0.0150
     15  C12        8.8700    9.2390   25.9980 C.ar  260  INH260      0.0020
     16  C11        8.9630    7.8600   25.9310 C.ar  260  INH260      0.0160
     17  O1         8.8110    7.3030   22.3020 O.3   260  INH260     -0.3590
     18  H          8.8600    7.7950   21.5060 H     260  INH260      0.2170
     19  C16        8.6970   10.2110   22.4710 C.ar  260  INH260     -0.0230
     20  C21        9.8550   10.7880   21.9790 C.ar  260  INH260      0.0120
     21  C20        9.8270   11.5480   20.8350 C.ar  260  INH260      0.0010
     22  C19        8.6450   11.7620   20.1480 C.ar  260  INH260      0.0000
     23  C18        7.4750   11.2020   20.6270 C.ar  260  INH260      0.0010
     24  C17        7.5050   10.4260   21.7920 C.ar  260  INH260      0.0120
     25  C7         8.2840    0.0100   25.2970 C.2   260  INH260      0.1020
     26  N2         8.2180   -0.2210   26.5760 N.pl3 260  INH260     -0.3850
     27  H7         7.9410   -1.1530   26.9180 H     260  INH260      0.1570
     28  H6         8.4440    0.5280   27.2470 H     260  INH260      0.1570
     29  N1         7.9920   -0.9560   24.4690 N.2   260  INH260     -0.3850
     30  H5         7.1670   -0.8790   23.8570 H     260  INH260      0.1570
     31  H4         8.5870   -1.7960   24.4280 H     260  INH260      0.1570
@<TRIPOS>BOND
     1    22    23   ar
     2    22    21   ar
     3    23    24   ar
     4    21    20   ar
     5    18    17    1
     6    24    19   ar
     7    20    19   ar
     8    17    12    1
     9    19    13    1
    10    10     7    1
    11     3     2   ar
    12     3     4   ar
    13    12    13   ar
    14    12    11   ar
    15    13    14   ar
    16     2     1   ar
    17     7     4   ar
    18     7     9   ar
    19    30    29    1
    20     4     5   ar
    21    31    29    1
    22    29    25    2
    23     9    11    1
    24     9     8   ar
    25    11    16   ar
    26     1    25    1
    27     1     6   ar
    28    14    15   ar
    29     5     6   ar
    30     5     8   ar
    31    25    26    1
    32    16    15   ar
    33    26    27    1
    34    26    28    1
