@<TRIPOS>MOLECULE
/tmp/ewbell/vina_1o5a_1o5a_lig/vina/vina2.pdbqt
 31 34 0 0 0
SMALL
GASTEIGER

@<TRIPOS>ATOM
      1  C1         8.5390    0.7880   24.7830 C.ar  260  INH260      0.0080
      2  C2         9.0960    0.9090   23.4720 C.ar  260  INH260      0.0170
      3  C3         9.3620    2.1720   22.8950 C.ar  260  INH260      0.0310
      4  C4         9.0650    3.2960   23.6340 C.ar  260  INH260      0.0430
      5  C5         8.5340    3.1850   24.8900 C.ar  260  INH260     -0.0060
      6  C6         8.2580    1.9650   25.4910 C.ar  260  INH260      0.0290
      7  N3         9.2250    4.5700   23.3650 N.ar  260  INH260     -0.3550
      8  C8         8.3730    4.4370   25.3810 C.ar  260  INH260      0.0440
      9  C9         8.8210    5.2990   24.3870 C.ar  260  INH260      0.0460
     10  H8         9.6090    4.9450   22.4860 H     260  INH260      0.1660
     11  C10        8.7220    6.6960   24.3940 C.ar  260  INH260      0.0250
     12  C15        7.7500    7.3540   23.6120 C.ar  260  INH260      0.0890
     13  C14        7.6670    8.7530   23.6290 C.ar  260  INH260      0.0080
     14  C13        8.5560    9.4720   24.4380 C.ar  260  INH260      0.0150
     15  C12        9.5110    8.8310   25.2070 C.ar  260  INH260      0.0020
     16  C11        9.5930    7.4500   25.1830 C.ar  260  INH260      0.0160
     17  O1         6.9050    6.6090   22.8240 O.3   260  INH260     -0.3590
     18  H          6.7920    5.6940   22.9930 H     260  INH260      0.2170
     19  C16        6.8090    9.5230   22.8340 C.ar  260  INH260     -0.0230
     20  C21        5.4500    9.5730   23.0900 C.ar  260  INH260      0.0120
     21  C20        4.6320   10.4070   22.3680 C.ar  260  INH260      0.0010
     22  C19        5.1400   11.2140   21.3660 C.ar  260  INH260      0.0000
     23  C18        6.4930   11.1730   21.0870 C.ar  260  INH260      0.0010
     24  C17        7.3270   10.3230   21.8240 C.ar  260  INH260      0.0120
     25  C7         8.2780   -0.4680   25.3850 C.2   260  INH260      0.1020
     26  N2         7.8570   -0.5440   26.6150 N.pl3 260  INH260     -0.3850
     27  H7         7.6700   -1.4640   27.0400 H     260  INH260      0.1570
     28  H6         7.7120    0.3160   27.1630 H     260  INH260      0.1570
     29  N1         8.4540   -1.5730   24.7130 N.2   260  INH260     -0.3850
     30  H5         7.8660   -1.7760   23.8920 H     260  INH260      0.1570
     31  H4         9.1810   -2.2420   25.0040 H     260  INH260      0.1570
@<TRIPOS>BOND
     1    23    22   ar
     2    23    24   ar
     3    22    21   ar
     4    24    19   ar
     5    21    20   ar
     6    10     7    1
     7    17    18    1
     8    17    12    1
     9    19    20   ar
    10    19    13    1
    11     3     2   ar
    12     3     4   ar
    13     7     4   ar
    14     7     9   ar
    15     2     1   ar
    16    12    13   ar
    17    12    11   ar
    18    13    14   ar
    19     4     5   ar
    20    30    29    1
    21     9    11    1
    22     9     8   ar
    23    11    16   ar
    24    14    15   ar
    25    29    31    1
    26    29    25    2
    27     1    25    1
    28     1     6   ar
    29     5     8   ar
    30     5     6   ar
    31    16    15   ar
    32    25    26    1
    33    26    27    1
    34    26    28    1
