@<TRIPOS>MOLECULE
/tmp/ewbell/vina_1o5a_1o5a_lig/vina/vina4.pdbqt
 31 34 0 0 0
SMALL
GASTEIGER

@<TRIPOS>ATOM
      1  C1        11.6740    9.9440   21.5670 C.ar  260  INH260      0.0080
      2  C2        12.7900    9.0570   21.4520 C.ar  260  INH260      0.0170
      3  C3        12.7840    7.7780   22.0530 C.ar  260  INH260      0.0310
      4  C4        11.6630    7.4030   22.7630 C.ar  260  INH260      0.0430
      5  C5        10.5930    8.2460   22.8730 C.ar  260  INH260     -0.0060
      6  C6        10.5600    9.5090   22.2980 C.ar  260  INH260      0.0290
      7  N3        11.3780    6.2880   23.3920 N.ar  260  INH260     -0.3550
      8  C8         9.6390    7.6090   23.5940 C.ar  260  INH260      0.0440
      9  C9        10.1690    6.3630   23.9120 C.ar  260  INH260      0.0460
     10  H8        12.0050    5.4750   23.4700 H     260  INH260      0.1660
     11  C10        9.5940    5.4110   24.7620 C.ar  260  INH260      0.0250
     12  C15        9.5730    4.0460   24.4080 C.ar  260  INH260      0.0890
     13  C14        8.9900    3.1060   25.2700 C.ar  260  INH260      0.0080
     14  C13        8.4440    3.5500   26.4800 C.ar  260  INH260      0.0150
     15  C12        8.4610    4.8880   26.8330 C.ar  260  INH260      0.0020
     16  C11        9.0320    5.8120   25.9760 C.ar  260  INH260      0.0160
     17  O1        10.1120    3.6570   23.2040 O.3   260  INH260     -0.3590
     18  H         10.4100    2.7760   23.0880 H     260  INH260      0.2170
     19  C16        8.8310    1.7430   24.9920 C.ar  260  INH260     -0.0230
     20  C21        8.3070    0.8780   25.9360 C.ar  260  INH260      0.0120
     21  C20        8.0610   -0.4360   25.6210 C.ar  260  INH260      0.0010
     22  C19        8.3330   -0.9310   24.3580 C.ar  260  INH260      0.0000
     23  C18        8.8650   -0.0860   23.4020 C.ar  260  INH260      0.0010
     24  C17        9.1150    1.2540   23.7240 C.ar  260  INH260      0.0120
     25  C7        11.6530   11.2240   20.9600 C.2   260  INH260      0.1020
     26  N2        11.3470   12.2850   21.6500 N.pl3 260  INH260     -0.3850
     27  H7        11.3370   13.2100   21.1960 H     260  INH260      0.1570
     28  H6        11.1130   12.1990   22.6500 H     260  INH260      0.1570
     29  N1        11.9460   11.3610   19.6950 N.2   260  INH260     -0.3850
     30  H5        12.4280   12.2110   19.3670 H     260  INH260      0.1570
     31  H4        11.6960   10.6200   19.0260 H     260  INH260      0.1570
@<TRIPOS>BOND
     1    31    29    1
     2    30    29    1
     3    29    25    2
     4    25     1    1
     5    25    26    1
     6    27    26    1
     7     2     1   ar
     8     2     3   ar
     9     1     6   ar
    10    26    28    1
    11     3     4   ar
    12     6     5   ar
    13     4     5   ar
    14     4     7   ar
    15     5     8   ar
    16    18    17    1
    17    17    12    1
    18     7    10    1
    19     7     9   ar
    20    23    24   ar
    21    23    22   ar
    22     8     9   ar
    23    24    19   ar
    24     9    11    1
    25    22    21   ar
    26    12    11   ar
    27    12    13   ar
    28    11    16   ar
    29    19    13    1
    30    19    20   ar
    31    13    14   ar
    32    21    20   ar
    33    16    15   ar
    34    14    15   ar
