@<TRIPOS>MOLECULE
/tmp/ewbell/vina_1o5a_1o5a_lig/vina/vina1.pdbqt
 31 34 0 0 0
SMALL
GASTEIGER

@<TRIPOS>ATOM
      1  C1         8.6030    0.6140   24.9190 C.ar  260  INH260      0.0080
      2  C2         8.9990    0.6340   23.5460 C.ar  260  INH260      0.0170
      3  C3         9.4220    1.8250   22.9130 C.ar  260  INH260      0.0310
      4  C4         9.4420    2.9820   23.6620 C.ar  260  INH260      0.0430
      5  C5         9.0670    2.9680   24.9770 C.ar  260  INH260     -0.0060
      6  C6         8.6450    1.8200   25.6340 C.ar  260  INH260      0.0290
      7  N3         9.8040    4.2030   23.3490 N.ar  260  INH260     -0.3550
      8  C8         9.2110    4.2260   25.4600 C.ar  260  INH260      0.0440
      9  C9         9.6810    4.9910   24.3990 C.ar  260  INH260      0.0460
     10  H8        10.1340    4.5020   22.4210 H     260  INH260      0.1660
     11  C10        9.8510    6.3810   24.3910 C.ar  260  INH260      0.0250
     12  C15       10.9540    6.9690   23.7390 C.ar  260  INH260      0.0890
     13  C14       11.1090    8.3630   23.7430 C.ar  260  INH260      0.0080
     14  C13       10.1490    9.1460   24.3950 C.ar  260  INH260      0.0150
     15  C12        9.0650    8.5740   25.0370 C.ar  260  INH260      0.0020
     16  C11        8.9190    7.1980   25.0350 C.ar  260  INH260      0.0160
     17  O1        11.8780    6.1610   23.1200 O.3   260  INH260     -0.3590
     18  H         11.6460    5.2870   22.8750 H     260  INH260      0.2170
     19  C16       12.2020    9.0560   23.2100 C.ar  260  INH260     -0.0230
     20  C21       13.2960    9.3790   23.9940 C.ar  260  INH260      0.0120
     21  C20       14.4050    9.9700   23.4400 C.ar  260  INH260      0.0010
     22  C19       14.4580   10.2630   22.0890 C.ar  260  INH260      0.0000
     23  C18       13.3730    9.9570   21.2890 C.ar  260  INH260      0.0010
     24  C17       12.2440    9.3530   21.8540 C.ar  260  INH260      0.0120
     25  C7         8.1900   -0.5710   25.5760 C.2   260  INH260      0.1020
     26  N2         7.7070   -0.5320   26.7840 N.pl3 260  INH260     -0.3850
     27  H7         7.4090   -1.4020   27.2490 H     260  INH260      0.1570
     28  H6         7.6240    0.3690   27.2760 H     260  INH260      0.1570
     29  N1         8.2840   -1.7270   24.9750 N.2   260  INH260     -0.3850
     30  H5         9.1720   -2.2480   24.9970 H     260  INH260      0.1570
     31  H4         7.4700   -2.1180   24.4810 H     260  INH260      0.1570
@<TRIPOS>BOND
     1    23    24   ar
     2    23    22   ar
     3    24    19   ar
     4    22    21   ar
     5    10     7    1
     6    18    17    1
     7     3     2   ar
     8     3     4   ar
     9    17    12    1
    10    19    13    1
    11    19    20   ar
    12     7     4   ar
    13     7     9   ar
    14    21    20   ar
    15     2     1   ar
    16     4     5   ar
    17    12    13   ar
    18    12    11   ar
    19    13    14   ar
    20    11     9    1
    21    11    16   ar
    22    14    15   ar
    23     9     8   ar
    24    31    29    1
    25     1    25    1
    26     1     6   ar
    27    29    30    1
    28    29    25    2
    29     5     8   ar
    30     5     6   ar
    31    16    15   ar
    32    25    26    1
    33    26    27    1
    34    26    28    1
