@<TRIPOS>MOLECULE
./ligand/2p7g_lig.pdb
 33 34 0 0 0
SMALL
GASTEIGER

@<TRIPOS>ATOM
      1  O1        48.5790  -29.6480 -101.2110 O.3   225  INH225     -0.5068
      2  C1        48.5640  -29.4780  -99.8580 C.ar  225  INH225      0.1169
      3  C2        47.5250  -30.0870  -99.1290 C.ar  225  INH225     -0.0199
      4  C3        47.4680  -29.9360  -97.7110 C.ar  225  INH225     -0.0543
      5  C4        49.5590  -28.7140  -99.1980 C.ar  225  INH225     -0.0199
      6  C5        49.5080  -28.5580  -97.7840 C.ar  225  INH225     -0.0543
      7  C6        48.4580  -29.1650  -96.9920 C.ar  225  INH225     -0.0372
      8  C7        48.4200  -28.9690  -95.4200 C.3   225  INH225      0.0151
      9  C8        49.7240  -29.6120  -94.8290 C.3   225  INH225     -0.0517
     10  C9        47.2320  -29.7120  -94.7540 C.3   225  INH225     -0.0517
     11  C10       48.2150  -27.4370  -95.0660 C.ar  225  INH225     -0.0372
     12  C11       49.1120  -26.6650  -94.2480 C.ar  225  INH225     -0.0543
     13  C12       48.8460  -25.2860  -93.9710 C.ar  225  INH225     -0.0199
     14  C13       47.0510  -26.7480  -95.5860 C.ar  225  INH225     -0.0543
     15  C14       46.7960  -25.3860  -95.3140 C.ar  225  INH225     -0.0199
     16  C15       47.6860  -24.6620  -94.5100 C.ar  225  INH225      0.1169
     17  O2        47.4540  -23.3420  -94.2300 O.3   225  INH225     -0.5068
     18  H1        49.3250  -29.1900 -101.5790 H     225  INH225      0.2921
     19  H2        46.7700  -30.6700  -99.6440 H     225  INH225      0.0654
     20  H3        46.6640  -30.4100  -97.1600 H     225  INH225      0.0622
     21  H4        50.3560  -28.2500  -99.7680 H     225  INH225      0.0654
     22  H5        50.2730  -27.9710  -97.2880 H     225  INH225      0.0622
     23  H6        49.7780  -30.6700  -95.1260 H     225  INH225      0.0241
     24  H7        49.7030  -29.5400  -93.7320 H     225  INH225      0.0241
     25  H8        50.6040  -29.0770  -95.2150 H     225  INH225      0.0241
     26  H9        46.2840  -29.3010  -95.1320 H     225  INH225      0.0241
     27  H10       47.2800  -29.5780  -93.6630 H     225  INH225      0.0241
     28  H11       47.2890  -30.7840  -94.9940 H     225  INH225      0.0241
     29  H12       49.9990  -27.1330  -93.8370 H     225  INH225      0.0622
     30  H13       49.5280  -24.7170  -93.3500 H     225  INH225      0.0654
     31  H14       46.3520  -27.2970  -96.2050 H     225  INH225      0.0622
     32  H15       45.9170  -24.9030  -95.7250 H     225  INH225      0.0654
     33  H16       48.1500  -23.0090  -93.6760 H     225  INH225      0.2921
@<TRIPOS>BOND
     1     1    18    1
     2     1     2    1
     3     2     5   ar
     4     2     3   ar
     5     3    19    1
     6     3     4   ar
     7     4    20    1
     8     4     7   ar
     9     5     6   ar
    10     5    21    1
    11     6     7   ar
    12     6    22    1
    13     7     8    1
    14     8    11    1
    15     8    10    1
    16     8     9    1
    17     9    25    1
    18     9    24    1
    19     9    23    1
    20    10    28    1
    21    10    27    1
    22    10    26    1
    23    11    14   ar
    24    11    12   ar
    25    12    29    1
    26    12    13   ar
    27    13    30    1
    28    13    16   ar
    29    14    15   ar
    30    14    31    1
    31    15    16   ar
    32    15    32    1
    33    16    17    1
    34    17    33    1
