@<TRIPOS>MOLECULE
/tmp/ewbell/vina_2p7g_2p7g_lig/vina/vina4.pdbqt
 19 20 0 0 0
SMALL
GASTEIGER

@<TRIPOS>ATOM
      1  C7        45.0610  -17.9510  -89.8640 C.3   225  INH225      0.0070
      2  C8        44.5850  -16.4640  -89.7040 C.3   225  INH225      0.0250
      3  C9        45.2800  -18.4920  -88.4270 C.3   225  INH225      0.0250
      4  C6        46.3940  -17.9380  -90.7210 C.ar  225  INH225     -0.0450
      5  C3        47.3450  -19.0270  -90.7080 C.ar  225  INH225      0.0110
      6  C2        48.5330  -18.9900  -91.4990 C.ar  225  INH225      0.0370
      7  C1        48.8000  -17.8720  -92.3120 C.ar  225  INH225      0.0650
      8  C4        47.8990  -16.7800  -92.3570 C.ar  225  INH225      0.0370
      9  C5        46.7110  -16.8110  -91.5730 C.ar  225  INH225      0.0110
     10  O1        49.9460  -17.8800  -93.0500 O.3   225  INH225     -0.3610
     11  H1        49.7880  -18.3260  -93.8750 H     225  INH225      0.2170
     12  C10       43.9960  -18.9220  -90.5260 C.ar  225  INH225     -0.0450
     13  C13       43.3480  -18.5160  -91.7580 C.ar  225  INH225      0.0110
     14  C14       42.3920  -19.3240  -92.4090 C.ar  225  INH225      0.0370
     15  C15       42.0510  -20.5680  -91.8650 C.ar  225  INH225      0.0650
     16  C12       42.6540  -21.0210  -90.6580 C.ar  225  INH225      0.0370
     17  C11       43.6200  -20.2020  -89.9900 C.ar  225  INH225      0.0110
     18  O2        41.1300  -21.3700  -92.4850 O.3   225  INH225     -0.3610
     19  H16       40.8750  -20.9790  -93.3130 H     225  INH225      0.2170
@<TRIPOS>BOND
     1    11    10    1
     2    19    18    1
     3    10     7    1
     4    18    15    1
     5    14    15   ar
     6    14    13   ar
     7     8     7   ar
     8     8     9   ar
     9     7     6   ar
    10    15    16   ar
    11    13    12   ar
    12     9     4   ar
    13     6     5   ar
    14     4     5   ar
    15     4     1    1
    16    16    17   ar
    17    12    17   ar
    18    12     1    1
    19     1     2    1
    20     1     3    1
