@<TRIPOS>MOLECULE
/tmp/ewbell/vina_2p7g_2p7g_lig/vina/vina2.pdbqt
 19 20 0 0 0
SMALL
GASTEIGER

@<TRIPOS>ATOM
      1  C7        48.6660  -28.9760  -95.3980 C.3   225  INH225      0.0070
      2  C8        50.0680  -29.3610  -94.8070 C.3   225  INH225      0.0250
      3  C9        47.6380  -29.9160  -94.7160 C.3   225  INH225      0.0250
      4  C6        48.7350  -29.1820  -96.9680 C.ar  225  INH225     -0.0450
      5  C3        47.6280  -29.7010  -97.7400 C.ar  225  INH225      0.0110
      6  C2        47.7170  -29.8670  -99.1550 C.ar  225  INH225      0.0370
      7  C1        48.9060  -29.5240  -99.8270 C.ar  225  INH225      0.0650
      8  C4        50.0180  -29.0130  -99.1140 C.ar  225  INH225      0.0370
      9  C5        49.9360  -28.8430  -97.7030 C.ar  225  INH225      0.0110
     10  O1        48.9460  -29.6980 -101.1790 O.3   225  INH225     -0.3610
     11  H1        49.8500  -29.7740 -101.4610 H     225  INH225      0.2170
     12  C10       48.1840  -27.5040  -95.0620 C.ar  225  INH225     -0.0450
     13  C13       47.1290  -26.9130  -95.8600 C.ar  225  INH225      0.0110
     14  C14       46.6430  -25.6090  -95.6220 C.ar  225  INH225      0.0370
     15  C15       47.1830  -24.8480  -94.5780 C.ar  225  INH225      0.0650
     16  C12       48.2220  -25.3750  -93.7600 C.ar  225  INH225      0.0370
     17  C11       48.7220  -26.6950  -94.0010 C.ar  225  INH225      0.0110
     18  O2        46.7220  -23.5830  -94.3280 O.3   225  INH225     -0.3610
     19  H16       47.1110  -22.9760  -94.9460 H     225  INH225      0.2170
@<TRIPOS>BOND
     1    11    10    1
     2    10     7    1
     3     7     6   ar
     4     7     8   ar
     5     6     5   ar
     6     8     9   ar
     7     5     4   ar
     8     9     4   ar
     9     4     1    1
    10    13    14   ar
    11    13    12   ar
    12    14    15   ar
    13     1    12    1
    14     1     2    1
    15     1     3    1
    16    12    17   ar
    17    19    18    1
    18    15    18    1
    19    15    16   ar
    20    17    16   ar
