@<TRIPOS>MOLECULE
/tmp/ewbell/vina_2p7g_2p7g_lig/vina/vina5.pdbqt
 19 20 0 0 0
SMALL
GASTEIGER

@<TRIPOS>ATOM
      1  C7        47.6370  -29.2130  -95.8870 C.3   225  INH225      0.0070
      2  C8        48.0630  -30.4850  -95.0720 C.3   225  INH225      0.0250
      3  C9        46.0940  -29.1110  -95.7540 C.3   225  INH225      0.0250
      4  C6        48.1070  -29.4230  -97.3850 C.ar  225  INH225     -0.0450
      5  C3        47.2740  -30.0500  -98.3880 C.ar  225  INH225      0.0110
      6  C2        47.7240  -30.2170  -99.7330 C.ar  225  INH225      0.0370
      7  C1        49.0060  -29.7690 -100.1050 C.ar  225  INH225      0.0650
      8  C4        49.8580  -29.1510  -99.1570 C.ar  225  INH225      0.0370
      9  C5        49.4170  -28.9790  -97.8150 C.ar  225  INH225      0.0110
     10  O1        49.3930  -29.9480 -101.4000 O.3   225  INH225     -0.3610
     11  H1        49.2120  -29.1580 -101.8960 H     225  INH225      0.2170
     12  C10       48.2030  -27.8430  -95.3250 C.ar  225  INH225     -0.0450
     13  C13       47.2690  -26.7960  -94.9610 C.ar  225  INH225      0.0110
     14  C14       47.6940  -25.5500  -94.4510 C.ar  225  INH225      0.0370
     15  C15       49.0610  -25.3010  -94.2790 C.ar  225  INH225      0.0650
     16  C12       50.0250  -26.2920  -94.6190 C.ar  225  INH225      0.0370
     17  C11       49.6000  -27.5550  -95.1410 C.ar  225  INH225      0.0110
     18  O2        49.4930  -24.1020  -93.7810 O.3   225  INH225     -0.3610
     19  H16       49.6950  -24.1960  -92.8570 H     225  INH225      0.2170
@<TRIPOS>BOND
     1    11    10    1
     2    10     7    1
     3     7     6   ar
     4     7     8   ar
     5     6     5   ar
     6     8     9   ar
     7     5     4   ar
     8     9     4   ar
     9     4     1    1
    10     1     3    1
    11     1    12    1
    12     1     2    1
    13    12    17   ar
    14    12    13   ar
    15    17    16   ar
    16    13    14   ar
    17    16    15   ar
    18    14    15   ar
    19    15    18    1
    20    18    19    1
