@<TRIPOS>MOLECULE
/tmp/ewbell/vina_2p7g_2p7g_lig/vina/vina1.pdbqt
 19 20 0 0 0
SMALL
GASTEIGER

@<TRIPOS>ATOM
      1  C7        48.5700  -28.9710  -95.4050 C.3   225  INH225      0.0070
      2  C8        47.6470  -29.9830  -94.6390 C.3   225  INH225      0.0250
      3  C9        50.0090  -29.2150  -94.8800 C.3   225  INH225      0.0250
      4  C6        48.0460  -27.5090  -95.0900 C.ar  225  INH225     -0.0450
      5  C3        48.4510  -26.7660  -93.9180 C.ar  225  INH225      0.0110
      6  C2        47.9680  -25.4460  -93.6670 C.ar  225  INH225      0.0370
      7  C1        47.0720  -24.8430  -94.5700 C.ar  225  INH225      0.0650
      8  C4        46.6450  -25.5320  -95.7320 C.ar  225  INH225      0.0370
      9  C5        47.1240  -26.8470  -95.9910 C.ar  225  INH225      0.0110
     10  O1        46.6370  -23.5820  -94.2900 O.3   225  INH225     -0.3610
     11  H1        47.3830  -22.9950  -94.2370 H     225  INH225      0.2170
     12  C10       48.6460  -29.1970  -96.9730 C.ar  225  INH225     -0.0450
     13  C13       49.8680  -28.8520  -97.6720 C.ar  225  INH225      0.0110
     14  C14       50.0160  -29.0260  -99.0650 C.ar  225  INH225      0.0370
     15  C15       48.9570  -29.5540  -99.8130 C.ar  225  INH225      0.0650
     16  C12       47.7320  -29.9110  -99.1820 C.ar  225  INH225      0.0370
     17  C11       47.5750  -29.7320  -97.7700 C.ar  225  INH225      0.0110
     18  O2        49.0820  -29.7360 -101.1640 O.3   225  INH225     -0.3610
     19  H16       49.4470  -30.5950 -101.3360 H     225  INH225      0.2170
@<TRIPOS>BOND
     1    19    18    1
     2    18    15    1
     3    15    16   ar
     4    15    14   ar
     5    16    17   ar
     6    14    13   ar
     7    17    12   ar
     8    13    12   ar
     9    12     1    1
    10     9     8   ar
    11     9     4   ar
    12     8     7   ar
    13     1     4    1
    14     1     3    1
    15     1     2    1
    16     4     5   ar
    17     7    10    1
    18     7     6   ar
    19    10    11    1
    20     5     6   ar
