@<TRIPOS>MOLECULE
/tmp/ewbell/vina_2p7g_2p7g_lig/vina/vina3.pdbqt
 19 20 0 0 0
SMALL
GASTEIGER

@<TRIPOS>ATOM
      1  C7        45.1240  -18.0400  -89.8220 C.3   225  INH225      0.0070
      2  C8        45.3430  -18.5610  -88.3580 C.3   225  INH225      0.0250
      3  C9        44.6670  -16.5630  -89.6910 C.3   225  INH225      0.0250
      4  C6        44.0260  -18.9600  -90.5000 C.ar  225  INH225     -0.0450
      5  C3        43.5920  -20.2140  -89.9270 C.ar  225  INH225      0.0110
      6  C2        42.5940  -21.0170  -90.5590 C.ar  225  INH225      0.0370
      7  C1        42.0130  -20.5910  -91.7690 C.ar  225  INH225      0.0650
      8  C4        42.4080  -19.3700  -92.3690 C.ar  225  INH225      0.0370
      9  C5        43.4000  -18.5640  -91.7450 C.ar  225  INH225      0.0110
     10  O1        41.0640  -21.3890  -92.3350 O.3   225  INH225     -0.3610
     11  H1        40.5370  -21.7880  -91.6520 H     225  INH225      0.2170
     12  C10       46.4320  -18.0010  -90.7170 C.ar  225  INH225     -0.0450
     13  C13       46.6810  -16.8380  -91.5440 C.ar  225  INH225      0.0110
     14  C14       47.8240  -16.7260  -92.3660 C.ar  225  INH225      0.0370
     15  C15       48.7630  -17.7640  -92.3900 C.ar  225  INH225      0.0650
     16  C12       48.5730  -18.9320  -91.5990 C.ar  225  INH225      0.0370
     17  C11       47.4130  -19.0520  -90.7680 C.ar  225  INH225      0.0110
     18  O2        49.8800  -17.6730  -93.1760 O.3   225  INH225     -0.3610
     19  H16       50.5830  -18.1820  -92.7880 H     225  INH225      0.2170
@<TRIPOS>BOND
     1    18    19    1
     2    18    15    1
     3    15    14   ar
     4    15    16   ar
     5     8     7   ar
     6     8     9   ar
     7    14    13   ar
     8    10     7    1
     9    10    11    1
    10     7     6   ar
    11     9     4   ar
    12    16    17   ar
    13    13    12   ar
    14    17    12   ar
    15    12     1    1
    16     6     5   ar
    17     4     5   ar
    18     4     1    1
    19     1     3    1
    20     1     2    1
