@<TRIPOS>MOLECULE
./ligand/2vkm_lig.pdb
 90 93 0 0 0
SMALL
GASTEIGER

@<TRIPOS>ATOM
      1  C1         4.4130   -5.1950   33.1000 C.ar  392  INH392     -0.0568
      2  C2         5.2420   -4.3600   33.8900 C.ar  392  INH392     -0.0614
      3  C3         4.6980   -3.6390   34.9800 C.ar  392  INH392     -0.0617
      4  C4         3.3210   -3.7450   35.2880 C.ar  392  INH392     -0.0614
      5  C5         2.4880   -4.5800   34.4980 C.ar  392  INH392     -0.0568
      6  C6         3.0360   -5.3160   33.3940 C.ar  392  INH392     -0.0275
      7  C7         2.1700   -6.2270   32.5070 C.3   392  INH392      0.0458
      8  C8         1.4620   -7.3670   33.2600 C.3   392  INH392     -0.0424
      9  N1         1.1280   -5.4320   31.8290 N.am  392  INH392     -0.3048
     10  C9         1.1560   -5.1180   30.5150 C.2   392  INH392      0.2446
     11  O1         2.0810   -5.4990   29.7990 O.2   392  INH392     -0.2702
     12  C10        0.0270   -4.2640   29.9990 C.ar  392  INH392      0.0392
     13  C11        0.2420   -3.3430   28.9160 C.ar  392  INH392     -0.0269
     14  C12       -0.8230   -2.4980   28.4210 C.ar  392  INH392      0.0520
     15  C13       -2.0970   -2.6130   29.0440 C.ar  392  INH392     -0.0269
     16  C14       -2.3290   -3.5250   30.1210 C.ar  392  INH392      0.0392
     17  C15       -1.2590   -4.3250   30.5690 C.ar  392  INH392     -0.0374
     18  N2        -0.5840   -1.5810   27.2910 N.pl3 392  INH392     -0.2106
     19  C16       -1.6780   -0.6210   26.9260 C.3   392  INH392      0.0232
     20  S1         0.9570   -0.7190   27.2970 S.O2  392  INH392      0.0424
     21  O2         0.7760    0.7120   26.7080 O.2   392  INH392     -0.1553
     22  O3         1.5840   -0.5900   28.7420 O.2   392  INH392     -0.1553
     23  C17       -3.6830   -3.6040   30.7330 C.2   392  INH392      0.2445
     24  O4        -4.7010   -3.6160   30.0040 O.2   392  INH392     -0.2702
     25  N3        -3.7510   -3.6810   32.1040 N.am  392  INH392     -0.3055
     26  C18       -4.9460   -4.1490   32.8940 C.3   392  INH392      0.0583
     27  C19       -4.5810   -5.5030   33.6110 C.3   392  INH392     -0.0066
     28  C20       -3.7670   -6.5940   32.8930 C.ar  392  INH392     -0.0455
     29  C21       -4.0520   -6.9600   31.5490 C.ar  392  INH392     -0.0585
     30  C22       -3.2910   -7.9850   30.9120 C.ar  392  INH392     -0.0615
     31  C23       -2.2570   -8.6380   31.6160 C.ar  392  INH392     -0.0617
     32  C24       -1.9610   -8.2760   32.9660 C.ar  392  INH392     -0.0615
     33  C25       -2.7170   -7.2550   33.5990 C.ar  392  INH392     -0.0585
     34  C26       -5.3790   -3.1870   34.0450 C.3   392  INH392      0.1133
     35  O5        -6.6810   -3.4440   34.5290 O.3   392  INH392     -0.3847
     36  C27       -5.3090   -1.6890   33.7640 C.3   392  INH392     -0.0049
     37  N4        -6.0570   -1.1290   32.6360 N.4   392  INH392      0.2321
     38  C28       -7.2500   -0.2620   32.9220 C.3   392  INH392     -0.0075
     39  C29       -8.5120   -0.9240   32.3680 C.ar  392  INH392      0.0005
     40  C30       -9.2790   -1.7510   33.2130 C.ar  392  INH392     -0.0118
     41  C31      -10.4180   -2.4190   32.7410 C.ar  392  INH392      0.1205
     42  C32      -10.7990   -2.2530   31.3800 C.ar  392  INH392     -0.0199
     43  C33      -10.0480   -1.4260   30.5150 C.ar  392  INH392     -0.0579
     44  C34       -8.8930   -0.7570   31.0100 C.ar  392  INH392     -0.0533
     45  O6       -11.2120   -3.2590   33.5010 O.3   392  INH392     -0.4951
     46  C35      -11.9020   -2.8360   34.6880 C.3   392  INH392      0.0788
     47  H1         4.8370   -5.7430   32.2660 H     392  INH392      0.0621
     48  H2         6.2970   -4.2730   33.6590 H     392  INH392      0.0618
     49  H3         5.3390   -3.0030   35.5810 H     392  INH392      0.0618
     50  H4         2.9050   -3.1920   36.1220 H     392  INH392      0.0618
     51  H5         1.4320   -4.6620   34.7300 H     392  INH392      0.0621
     52  H6         2.8290   -6.6760   31.7490 H     392  INH392      0.0545
     53  H7         2.2100   -7.9830   33.7800 H     392  INH392      0.0251
     54  H8         0.9070   -7.9900   32.5440 H     392  INH392      0.0251
     55  H9         0.7630   -6.9420   33.9950 H     392  INH392      0.0251
     56  H10        0.3560   -5.1060   32.3740 H     392  INH392      0.1496
     57  H11        1.2240   -3.2800   28.4600 H     392  INH392      0.0644
     58  H12       -2.9140   -1.9930   28.6930 H     392  INH392      0.0644
     59  H13       -1.4330   -5.0160   31.3860 H     392  INH392      0.0633
     60  H14       -2.6430   -1.1500   26.9200 H     392  INH392      0.0446
     61  H15       -1.4820   -0.2040   25.9270 H     392  INH392      0.0446
     62  H16       -1.7120    0.1940   27.6640 H     392  INH392      0.0446
     63  C36        2.0880   -1.5630   26.1760 C.3   392  INH392      0.0738
     64  H17        2.2980   -2.5620   26.5560 H     392  INH392      0.0482
     65  H18        3.0180   -0.9980   26.1050 H     392  INH392      0.0482
     66  H19        1.6320   -1.6390   25.1890 H     392  INH392      0.0482
     67  H20       -2.9400   -3.4040   32.6200 H     392  INH392      0.1494
     68  H21       -5.7890   -4.2930   32.2030 H     392  INH392      0.0529
     69  H22       -5.5340   -5.9680   33.9030 H     392  INH392      0.0332
     70  H23       -4.0130   -5.2340   34.5140 H     392  INH392      0.0332
     71  H24       -4.8470   -6.4600   31.0080 H     392  INH392      0.0620
     72  H25       -3.5070   -8.2620   29.8870 H     392  INH392      0.0618
     73  H26       -1.6840   -9.4190   31.1300 H     392  INH392      0.0618
     74  H27       -1.1640   -8.7780   33.5030 H     392  INH392      0.0618
     75  H28       -2.4960   -6.9760   34.6230 H     392  INH392      0.0620
     76  H29       -4.6770   -3.3850   34.8680 H     392  INH392      0.0666
     77  H30       -6.8870   -2.8300   35.2240 H     392  INH392      0.2101
     78  H31       -5.6660   -1.1770   34.6700 H     392  INH392      0.0840
     79  H32       -4.2490   -1.4440   33.5980 H     392  INH392      0.0840
     80  H33       -5.3640   -0.5360   32.0580 H     392  INH392      0.2018
     81  H34       -7.3540   -0.1290   34.0090 H     392  INH392      0.0866
     82  H35       -7.1120    0.7190   32.4440 H     392  INH392      0.0866
     83  H36       -8.9830   -1.8730   34.2490 H     392  INH392      0.0659
     84  H37      -11.6760   -2.7670   31.0030 H     392  INH392      0.0654
     85  H38      -10.3490   -1.3020   29.4810 H     392  INH392      0.0619
     86  H39       -8.3070   -0.1230   30.3540 H     392  INH392      0.0622
     87  H40      -12.4630   -3.6840   35.1080 H     392  INH392      0.0660
     88  H41      -12.6000   -2.0240   34.4370 H     392  INH392      0.0660
     89  H42      -11.1720   -2.4760   35.4280 H     392  INH392      0.0660
     90  H43       -6.3800   -1.9050   32.0800 H     392  INH392      0.2018
@<TRIPOS>BOND
     1     1    47    1
     2     1     6   ar
     3     1     2   ar
     4     2    48    1
     5     2     3   ar
     6     3    49    1
     7     3     4   ar
     8     4    50    1
     9     4     5   ar
    10     5    51    1
    11     5     6   ar
    12     6     7    1
    13     7    52    1
    14     7     9    1
    15     7     8    1
    16     8    55    1
    17     8    54    1
    18     8    53    1
    19     9    56    1
    20     9    10   am
    21    10    12    1
    22    10    11    2
    23    12    17   ar
    24    12    13   ar
    25    13    57    1
    26    13    14   ar
    27    14    18    1
    28    14    15   ar
    29    15    58    1
    30    15    16   ar
    31    16    23    1
    32    16    17   ar
    33    17    59    1
    34    18    20    1
    35    18    19    1
    36    19    62    1
    37    19    61    1
    38    19    60    1
    39    20    63    1
    40    20    22    2
    41    20    21    2
    42    23    25   am
    43    23    24    2
    44    25    67    1
    45    25    26    1
    46    26    68    1
    47    26    34    1
    48    26    27    1
    49    27    70    1
    50    27    69    1
    51    27    28    1
    52    28    33   ar
    53    28    29   ar
    54    29    71    1
    55    29    30   ar
    56    30    72    1
    57    30    31   ar
    58    31    73    1
    59    31    32   ar
    60    32    74    1
    61    32    33   ar
    62    33    75    1
    63    34    76    1
    64    34    36    1
    65    34    35    1
    66    35    77    1
    67    36    79    1
    68    36    78    1
    69    36    37    1
    70    37    90    1
    71    37    80    1
    72    37    38    1
    73    38    82    1
    74    38    81    1
    75    38    39    1
    76    39    44   ar
    77    39    40   ar
    78    40    83    1
    79    40    41   ar
    80    41    45    1
    81    41    42   ar
    82    42    84    1
    83    42    43   ar
    84    43    85    1
    85    43    44   ar
    86    44    86    1
    87    45    46    1
    88    46    89    1
    89    46    88    1
    90    46    87    1
    91    63    66    1
    92    63    65    1
    93    63    64    1
