@<TRIPOS>MOLECULE
/tmp/ewbell/vina_2vkm_2vkm_lig/vina/vina1.pdbqt
 52 55 0 0 0
SMALL
GASTEIGER

@<TRIPOS>ATOM
      1  C17       -9.3080    0.8890   30.8570 C.2   392  INH392      0.2520
      2  O4        -8.8490    1.8970   31.4410 O.2   392  INH392     -0.2680
      3  N3        -9.0940   -0.3920   31.3080 N.am  392  INH392     -0.3490
      4  H20       -9.4990   -1.1380   30.7790 H     392  INH392      0.1630
      5  C14      -10.1390    1.0510   29.6330 C.ar  392  INH392      0.0340
      6  C13       -9.8790    0.2290   28.4920 C.ar  392  INH392      0.0410
      7  C12      -10.6410    0.3430   27.2970 C.ar  392  INH392      0.0260
      8  C11      -11.6990    1.3300   27.2700 C.ar  392  INH392      0.0410
      9  C10      -11.9760    2.1630   28.4080 C.ar  392  INH392      0.0340
     10  C15      -11.1820    1.9960   29.5590 C.ar  392  INH392      0.0340
     11  N2       -10.3590   -0.4800   26.1060 N.pl3 392  INH392     -0.1810
     12  C16      -11.5280   -1.0220   25.3380 C.3   392  INH392      0.1350
     13  S1        -9.1760    0.1710   24.9680 S.O2  392  INH392      0.2110
     14  C36       -8.4770   -1.1990   24.0270 C.3   392  INH392      0.1800
     15  O3        -8.0390    1.0100   25.6750 O.2   392  INH392     -0.2110
     16  O2        -9.8820    1.0800   23.9190 O.2   392  INH392     -0.2110
     17  C9       -13.0990    3.1670   28.3680 C.2   392  INH392      0.2520
     18  N1       -14.3460    2.6930   28.5840 N.am  392  INH392     -0.3490
     19  H10      -15.1090    3.3360   28.5320 H     392  INH392      0.1630
     20  O1       -12.9160    4.3600   28.1270 O.2   392  INH392     -0.2680
     21  C7       -14.6470    1.2820   28.8950 C.3   392  INH392      0.1140
     22  C8       -15.8420    0.8630   28.0190 C.3   392  INH392      0.0370
     23  C6       -14.8730    1.1110   30.4070 C.ar  392  INH392     -0.0360
     24  C1       -15.0740    2.2650   31.1970 C.ar  392  INH392      0.0090
     25  C2       -15.2920    2.1470   32.5930 C.ar  392  INH392      0.0010
     26  C3       -15.3090    0.8710   33.2070 C.ar  392  INH392      0.0000
     27  C4       -15.1130   -0.2950   32.4320 C.ar  392  INH392      0.0010
     28  C5       -14.8960   -0.1800   31.0340 C.ar  392  INH392      0.0090
     29  C18       -8.3020   -0.7650   32.5340 C.3   392  INH392      0.1190
     30  C26       -6.7600   -0.8560   32.3060 C.3   392  INH392      0.1660
     31  C27       -6.2670   -1.8700   31.2790 C.3   392  INH392      0.2660
     32  N4        -4.8470   -2.2300   31.2410 N.4   392  INH392     -0.0690
     33  H43       -4.5500   -2.3600   32.1940 H     392  INH392      0.2770
     34  H33       -4.3190   -1.3940   30.8090 H     392  INH392      0.2770
     35  C28       -4.4360   -3.4580   30.4780 C.3   392  INH392      0.2710
     36  C29       -4.1740   -4.6060   31.4540 C.ar  392  INH392     -0.0300
     37  C34       -4.6760   -4.5680   32.7820 C.ar  392  INH392      0.0090
     38  C33       -4.4540   -5.6760   33.6500 C.ar  392  INH392      0.0030
     39  C32       -3.7420   -6.8010   33.1770 C.ar  392  INH392      0.0370
     40  C31       -3.2390   -6.8370   31.8470 C.ar  392  INH392      0.0680
     41  C30       -3.4640   -5.7380   31.0060 C.ar  392  INH392      0.0450
     42  O6        -2.5670   -7.9890   31.4780 O.3   392  INH392     -0.3560
     43  C35       -2.4040   -8.4080   30.1140 C.3   392  INH392      0.2100
     44  O5        -6.1710    0.3810   31.9630 O.3   392  INH392     -0.3920
     45  H30       -5.2300    0.3290   32.0850 H     392  INH392      0.2100
     46  C19       -8.7320   -2.2080   32.9970 C.3   392  INH392      0.0660
     47  C20      -10.2140   -2.5830   33.1720 C.ar  392  INH392     -0.0560
     48  C25      -10.7290   -3.7190   32.4790 C.ar  392  INH392      0.0070
     49  C24      -12.0880   -4.0980   32.6340 C.ar  392  INH392      0.0010
     50  C23      -12.9390   -3.3320   33.4900 C.ar  392  INH392      0.0000
     51  C22      -12.4360   -2.2050   34.1740 C.ar  392  INH392      0.0010
     52  C21      -11.0690   -1.8260   34.0190 C.ar  392  INH392      0.0070
@<TRIPOS>BOND
     1    16    13    2
     2    14    13    1
     3    13    15    2
     4    13    11    1
     5    12    11    1
     6    11     7    1
     7     8     7   ar
     8     8     9   ar
     9     7     6   ar
    10    22    21    1
    11    20    17    2
    12    17     9    1
    13    17    18   am
    14     9    10   ar
    15     6     5   ar
    16    19    18    1
    17    18    21    1
    18    21    23    1
    19    10     5   ar
    20     5     1    1
    21    43    42    1
    22    23    28   ar
    23    23    24   ar
    24    35    32    1
    25    35    36    1
    26     4     3    1
    27    34    32    1
    28     1     3   am
    29     1     2    2
    30    41    36   ar
    31    41    40   ar
    32    28    27   ar
    33    24    25   ar
    34    32    31    1
    35    32    33    1
    36    31    30    1
    37     3    29    1
    38    36    37   ar
    39    42    40    1
    40    40    39   ar
    41    44    45    1
    42    44    30    1
    43    30    29    1
    44    27    26   ar
    45    48    49   ar
    46    48    47   ar
    47    29    46    1
    48    25    26   ar
    49    49    50   ar
    50    37    38   ar
    51    46    47    1
    52    47    52   ar
    53    39    38   ar
    54    50    51   ar
    55    52    51   ar
