@<TRIPOS>MOLECULE
/tmp/ewbell/vina_2vkm_2vkm_lig/vina/vina5.pdbqt
 52 55 0 0 0
SMALL
GASTEIGER

@<TRIPOS>ATOM
      1  C17        3.3720   -6.1760   29.9390 C.2   392  INH392      0.2520
      2  O4         2.5030   -5.5750   29.2660 O.2   392  INH392     -0.2680
      3  N3         3.1560   -6.5820   31.2340 N.am  392  INH392     -0.3490
      4  H20        3.9060   -7.0570   31.6970 H     392  INH392      0.1630
      5  C14        4.6930   -6.4960   29.3340 C.ar  392  INH392      0.0340
      6  C13        4.7840   -7.5330   28.3530 C.ar  392  INH392      0.0410
      7  C12        6.0220   -7.8820   27.7450 C.ar  392  INH392      0.0260
      8  C11        7.2000   -7.1470   28.1550 C.ar  392  INH392      0.0410
      9  C10        7.1250   -6.1000   29.1370 C.ar  392  INH392      0.0340
     10  C15        5.8670   -5.8080   29.6980 C.ar  392  INH392      0.0340
     11  N2         6.1290   -8.9700   26.7550 N.pl3 392  INH392     -0.1810
     12  C16        5.1820  -10.1260   26.8830 C.3   392  INH392      0.1350
     13  S1         6.2120   -8.4810   25.0610 S.O2  392  INH392      0.2110
     14  C36        5.2110   -9.6220   24.0870 C.3   392  INH392      0.1800
     15  O3         7.6920   -8.4170   24.5110 O.2   392  INH392     -0.2110
     16  O2         5.5540   -7.0820   24.8710 O.2   392  INH392     -0.2110
     17  C9         8.3590   -5.3310   29.5320 C.2   392  INH392      0.2520
     18  N1         9.0250   -4.7000   28.5380 N.am  392  INH392     -0.3490
     19  H10        9.8630   -4.2090   28.7730 H     392  INH392      0.1630
     20  O1         8.7720   -5.2860   30.6900 O.2   392  INH392     -0.2680
     21  C7         8.5870   -4.6930   27.1300 C.3   392  INH392      0.1140
     22  C8         9.7030   -5.3480   26.2970 C.3   392  INH392      0.0370
     23  C6         8.2230   -3.2620   26.6970 C.ar  392  INH392     -0.0360
     24  C1         8.8050   -2.1760   27.3900 C.ar  392  INH392      0.0090
     25  C2         8.5010   -0.8430   27.0160 C.ar  392  INH392      0.0010
     26  C3         7.6100   -0.5890   25.9450 C.ar  392  INH392      0.0000
     27  C4         7.0210   -1.6620   25.2380 C.ar  392  INH392      0.0010
     28  C5         7.3250   -2.9980   25.6090 C.ar  392  INH392      0.0090
     29  C18        1.8840   -6.3730   32.0150 C.3   392  INH392      0.1190
     30  C26        0.5910   -6.3130   31.1420 C.3   392  INH392      0.1660
     31  C27       -0.5190   -7.3050   31.4730 C.3   392  INH392      0.2660
     32  N4        -1.6090   -7.5160   30.5170 N.4   392  INH392     -0.0690
     33  H43       -1.3220   -8.2580   29.9000 H     392  INH392      0.2770
     34  H33       -1.7190   -6.6010   29.9530 H     392  INH392      0.2770
     35  C28       -2.9680   -7.8790   31.0430 C.3   392  INH392      0.2710
     36  C29       -3.5970   -6.6650   31.7260 C.ar  392  INH392     -0.0300
     37  C34       -4.1860   -6.7710   33.0150 C.ar  392  INH392      0.0090
     38  C33       -4.7210   -5.6100   33.6430 C.ar  392  INH392      0.0030
     39  C32       -4.6540   -4.3650   32.9790 C.ar  392  INH392      0.0370
     40  C31       -4.0640   -4.2590   31.6880 C.ar  392  INH392      0.0680
     41  C30       -3.5450   -5.4120   31.0830 C.ar  392  INH392      0.0450
     42  O6        -4.0360   -2.9930   31.1300 O.3   392  INH392     -0.3560
     43  C35       -5.1870   -2.1360   31.0540 C.3   392  INH392      0.2100
     44  O5        -0.0070   -5.0340   31.1170 O.3   392  INH392     -0.3920
     45  H30        0.6590   -4.3700   31.2550 H     392  INH392      0.2100
     46  C19        1.9560   -4.9740   32.7350 C.3   392  INH392      0.0660
     47  C20        3.1520   -4.5920   33.6260 C.ar  392  INH392     -0.0560
     48  C25        4.4760   -4.7580   33.1190 C.ar  392  INH392      0.0070
     49  C24        5.5960   -4.3990   33.9120 C.ar  392  INH392      0.0010
     50  C23        5.3910   -3.8720   35.2240 C.ar  392  INH392      0.0000
     51  C22        4.0840   -3.7110   35.7330 C.ar  392  INH392      0.0010
     52  C21        2.9580   -4.0700   34.9330 C.ar  392  INH392      0.0070
@<TRIPOS>BOND
     1    14    13    1
     2    15    13    2
     3    16    13    2
     4    13    11    1
     5    27    28   ar
     6    27    26   ar
     7    28    23   ar
     8    26    25   ar
     9    22    21    1
    10    23    21    1
    11    23    24   ar
    12    11    12    1
    13    11     7    1
    14    25    24   ar
    15    21    18    1
    16     7     8   ar
    17     7     6   ar
    18     8     9   ar
    19     6     5   ar
    20    18    19    1
    21    18    17   am
    22     9    17    1
    23     9    10   ar
    24     2     1    2
    25     5    10   ar
    26     5     1    1
    27    17    20    2
    28    33    32    1
    29     1     3   am
    30    34    32    1
    31    32    35    1
    32    32    31    1
    33    35    36    1
    34    43    42    1
    35    41    40   ar
    36    41    36   ar
    37    44    30    1
    38    44    45    1
    39    42    40    1
    40    30    31    1
    41    30    29    1
    42     3     4    1
    43     3    29    1
    44    40    39   ar
    45    36    37   ar
    46    29    46    1
    47    46    47    1
    48    39    38   ar
    49    37    38   ar
    50    48    47   ar
    51    48    49   ar
    52    47    52   ar
    53    49    50   ar
    54    52    51   ar
    55    50    51   ar
