@<TRIPOS>MOLECULE
/tmp/ewbell/vina_2vkm_2vkm_lig/vina/vina4.pdbqt
 52 55 0 0 0
SMALL
GASTEIGER

@<TRIPOS>ATOM
      1  C17       -6.5620   -2.4810   32.6890 C.2   392  INH392      0.2520
      2  O4        -6.0510   -1.7780   33.5900 O.2   392  INH392     -0.2680
      3  N3        -5.8770   -3.4920   32.0570 N.am  392  INH392     -0.3490
      4  H20       -6.3630   -4.0030   31.3490 H     392  INH392      0.1630
      5  C14       -7.9730   -2.2520   32.2750 C.ar  392  INH392      0.0340
      6  C13       -9.0270   -2.4890   33.2130 C.ar  392  INH392      0.0410
      7  C12      -10.3930   -2.2880   32.8700 C.ar  392  INH392      0.0260
      8  C11      -10.6870   -1.8330   31.5270 C.ar  392  INH392      0.0410
      9  C10       -9.6390   -1.5880   30.5740 C.ar  392  INH392      0.0340
     10  C15       -8.3090   -1.8070   30.9810 C.ar  392  INH392      0.0340
     11  N2       -11.4870   -2.5590   33.8210 N.pl3 392  INH392     -0.1810
     12  C16      -12.5310   -1.4980   34.0060 C.3   392  INH392      0.1350
     13  S1       -12.2840   -4.1280   33.6700 S.O2  392  INH392      0.2110
     14  C36      -12.2730   -4.9310   35.2840 C.3   392  INH392      0.1800
     15  O3       -11.6200   -5.0520   32.5740 O.2   392  INH392     -0.2110
     16  O2       -13.7870   -3.9360   33.3100 O.2   392  INH392     -0.2110
     17  C9        -9.9650   -1.0900   29.1890 C.2   392  INH392      0.2520
     18  N1       -10.2480    0.2260   29.0680 N.am  392  INH392     -0.3490
     19  H10      -10.4960    0.5710   28.1630 H     392  INH392      0.1630
     20  O1       -10.0020   -1.8320   28.2090 O.2   392  INH392     -0.2680
     21  C7       -10.2090    1.1820   30.1900 C.3   392  INH392      0.1140
     22  C8       -10.9110    2.4700   29.7210 C.3   392  INH392      0.0370
     23  C6        -8.7600    1.3820   30.6650 C.ar  392  INH392     -0.0360
     24  C1        -7.7850    1.7750   29.7210 C.ar  392  INH392      0.0090
     25  C2        -6.4410    1.9750   30.1210 C.ar  392  INH392      0.0010
     26  C3        -6.0630    1.7830   31.4720 C.ar  392  INH392      0.0000
     27  C4        -7.0250    1.3930   32.4330 C.ar  392  INH392      0.0010
     28  C5        -8.3720    1.1920   32.0340 C.ar  392  INH392      0.0090
     29  C18       -4.4530   -3.8930   32.3450 C.3   392  INH392      0.1190
     30  C26       -3.5650   -4.0860   31.0750 C.3   392  INH392      0.1660
     31  C27       -3.8720   -3.2030   29.8710 C.3   392  INH392      0.2660
     32  N4        -2.9430   -2.1300   29.5050 N.4   392  INH392     -0.0690
     33  H43       -2.0840   -2.3000   30.0030 H     392  INH392      0.2770
     34  H33       -3.3780   -1.2030   29.8460 H     392  INH392      0.2770
     35  C28       -2.5870   -1.9480   28.0570 C.3   392  INH392      0.2710
     36  C29       -1.0840   -1.7010   27.9230 C.ar  392  INH392     -0.0300
     37  C34       -0.1500   -2.4060   28.7280 C.ar  392  INH392      0.0090
     38  C33        1.2450   -2.1860   28.5460 C.ar  392  INH392      0.0030
     39  C32        1.6830   -1.2730   27.5610 C.ar  392  INH392      0.0370
     40  C31        0.7470   -0.5660   26.7560 C.ar  392  INH392      0.0680
     41  C30       -0.6220   -0.7920   26.9500 C.ar  392  INH392      0.0450
     42  O6         1.2800    0.2960   25.8120 O.3   392  INH392     -0.3560
     43  C35        0.8280    0.3550   24.4500 C.3   392  INH392      0.2100
     44  O5        -2.1830   -3.9480   31.3330 O.3   392  INH392     -0.3920
     45  H30       -1.8920   -3.0900   31.0470 H     392  INH392      0.2100
     46  C19       -4.4570   -5.2990   33.0570 C.3   392  INH392      0.0660
     47  C20       -3.5090   -6.4250   32.6070 C.ar  392  INH392     -0.0560
     48  C25       -3.8370   -7.1860   31.4440 C.ar  392  INH392      0.0070
     49  C24       -2.9740   -8.2190   30.9980 C.ar  392  INH392      0.0010
     50  C23       -1.7730   -8.4960   31.7220 C.ar  392  INH392      0.0000
     51  C22       -1.4460   -7.7510   32.8750 C.ar  392  INH392      0.0010
     52  C21       -2.3140   -6.7100   33.3220 C.ar  392  INH392      0.0070
@<TRIPOS>BOND
     1    43    42    1
     2    42    40    1
     3    40    41   ar
     4    40    39   ar
     5    41    36   ar
     6    39    38   ar
     7    36    35    1
     8    36    37   ar
     9    35    32    1
    10    19    18    1
    11    20    17    2
    12    38    37   ar
    13    18    17   am
    14    18    21    1
    15    17     9    1
    16    32    34    1
    17    32    31    1
    18    32    33    1
    19    24    25   ar
    20    24    23   ar
    21    22    21    1
    22    31    30    1
    23    25    26   ar
    24    21    23    1
    25     9    10   ar
    26     9     8   ar
    27    23    28   ar
    28    10     5   ar
    29    49    48   ar
    30    49    50   ar
    31    45    44    1
    32    30    44    1
    33    30    29    1
    34     4     3    1
    35    48    47   ar
    36    26    27   ar
    37     8     7   ar
    38    50    51   ar
    39    28    27   ar
    40     3    29    1
    41     3     1   am
    42     5     1    1
    43     5     6   ar
    44    29    46    1
    45    15    13    2
    46    47    46    1
    47    47    52   ar
    48     1     2    2
    49     7     6   ar
    50     7    11    1
    51    51    52   ar
    52    16    13    2
    53    13    11    1
    54    13    14    1
    55    11    12    1
