@<TRIPOS>MOLECULE
/tmp/ewbell/vina_2vkm_2vkm_lig/vina/vina3.pdbqt
 52 55 0 0 0
SMALL
GASTEIGER

@<TRIPOS>ATOM
      1  C17       -5.5060   -2.1870   32.2320 C.2   392  INH392      0.2520
      2  O4        -4.9750   -2.2570   33.3640 O.2   392  INH392     -0.2680
      3  N3        -4.9280   -2.7240   31.1060 N.am  392  INH392     -0.3490
      4  H20       -5.4220   -2.6220   30.2430 H     392  INH392      0.1630
      5  C14       -6.8260   -1.5200   32.0680 C.ar  392  INH392      0.0340
      6  C13       -8.0010   -2.1510   32.5850 C.ar  392  INH392      0.0410
      7  C12       -9.2880   -1.5580   32.4550 C.ar  392  INH392      0.0260
      8  C11       -9.3720   -0.2840   31.7740 C.ar  392  INH392      0.0410
      9  C10       -8.2010    0.3650   31.2500 C.ar  392  INH392      0.0340
     10  C15       -6.9590   -0.2780   31.4150 C.ar  392  INH392      0.0340
     11  N2       -10.5070   -2.2160   32.9590 N.pl3 392  INH392     -0.1810
     12  C16      -11.0020   -1.8240   34.3200 C.3   392  INH392      0.1350
     13  S1       -11.8780   -2.2810   31.8470 S.O2  392  INH392      0.2110
     14  C36      -12.9160   -3.6830   32.3010 C.3   392  INH392      0.1800
     15  O3       -11.4370   -2.3700   30.3320 O.2   392  INH392     -0.2110
     16  O2       -12.7760   -1.0210   32.0260 O.2   392  INH392     -0.2110
     17  C9        -8.3070    1.7030   30.5660 C.2   392  INH392      0.2520
     18  N1        -9.1890    1.7950   29.5450 N.am  392  INH392     -0.3490
     19  H10       -9.2540    2.6650   29.0580 H     392  INH392      0.1630
     20  O1        -7.6180    2.6700   30.8870 O.2   392  INH392     -0.2680
     21  C7       -10.0620    0.6880   29.1110 C.3   392  INH392      0.1140
     22  C8        -9.5490    0.2090   27.7400 C.3   392  INH392      0.0370
     23  C6       -11.5330    1.1400   29.1210 C.ar  392  INH392     -0.0360
     24  C1       -11.8310    2.4670   29.5020 C.ar  392  INH392      0.0090
     25  C2       -13.1730    2.9220   29.5170 C.ar  392  INH392      0.0010
     26  C3       -14.2260    2.0500   29.1500 C.ar  392  INH392      0.0000
     27  C4       -13.9470    0.7190   28.7620 C.ar  392  INH392      0.0010
     28  C5       -12.6040    0.2610   28.7450 C.ar  392  INH392      0.0090
     29  C18       -3.6100   -3.4550   31.0650 C.3   392  INH392      0.1190
     30  C26       -2.5950   -2.9010   30.0170 C.3   392  INH392      0.1660
     31  C27       -1.4240   -3.8020   29.6380 C.3   392  INH392      0.2660
     32  N4        -0.1510   -3.6720   30.3530 N.4   392  INH392     -0.0690
     33  H43       -0.3680   -3.6080   31.3340 H     392  INH392      0.2770
     34  H33        0.3060   -2.7520   30.0240 H     392  INH392      0.2770
     35  C28        0.8750   -4.7590   30.1970 C.3   392  INH392      0.2710
     36  C29        1.0980   -5.4530   31.5410 C.ar  392  INH392     -0.0300
     37  C34        0.7390   -6.8140   31.7320 C.ar  392  INH392      0.0090
     38  C33        1.0040   -7.4430   32.9830 C.ar  392  INH392      0.0030
     39  C32        1.6260   -6.7060   34.0150 C.ar  392  INH392      0.0370
     40  C31        1.9840   -5.3430   33.8230 C.ar  392  INH392      0.0680
     41  C30        1.7150   -4.7380   32.5880 C.ar  392  INH392      0.0450
     42  O6         2.6000   -4.7160   34.8920 O.3   392  INH392     -0.3560
     43  C35        3.4630   -3.5760   34.7520 C.3   392  INH392      0.2100
     44  O5        -3.2040   -2.5030   28.8060 O.3   392  INH392     -0.3920
     45  H30       -2.7750   -2.9390   28.0780 H     392  INH392      0.2100
     46  C19       -3.8710   -4.9470   30.6320 C.3   392  INH392      0.0660
     47  C20       -3.3750   -6.1270   31.4870 C.ar  392  INH392     -0.0560
     48  C25       -3.4700   -6.0410   32.9090 C.ar  392  INH392      0.0070
     49  C24       -3.0360   -7.1200   33.7220 C.ar  392  INH392      0.0010
     50  C23       -2.5000   -8.2940   33.1070 C.ar  392  INH392      0.0000
     51  C22       -2.3990   -8.3820   31.7020 C.ar  392  INH392      0.0010
     52  C21       -2.8390   -7.2970   30.8860 C.ar  392  INH392      0.0070
@<TRIPOS>BOND
     1    22    21    1
     2    45    44    1
     3    28    27   ar
     4    28    23   ar
     5    27    26   ar
     6    44    30    1
     7    19    18    1
     8    21    23    1
     9    21    18    1
    10    23    24   ar
    11    26    25   ar
    12    24    25   ar
    13    18    17   am
    14    31    30    1
    15    31    32    1
    16    30    29    1
    17    34    32    1
    18    35    32    1
    19    35    36    1
    20     4     3    1
    21    15    13    2
    22    32    33    1
    23    17    20    2
    24    17     9    1
    25    46    29    1
    26    46    47    1
    27    52    47   ar
    28    52    51   ar
    29    29     3    1
    30     3     1   am
    31     9    10   ar
    32     9     8   ar
    33    10     5   ar
    34    47    48   ar
    35    36    37   ar
    36    36    41   ar
    37    51    50   ar
    38    37    38   ar
    39     8     7   ar
    40    13    16    2
    41    13    14    1
    42    13    11    1
    43     5     1    1
    44     5     6   ar
    45     1     2    2
    46     7     6   ar
    47     7    11    1
    48    41    40   ar
    49    48    49   ar
    50    11    12    1
    51    38    39   ar
    52    50    49   ar
    53    40    39   ar
    54    40    42    1
    55    43    42    1
