@<TRIPOS>MOLECULE
/tmp/ewbell/vina_2vkm_2vkm_lig/vina/vina2.pdbqt
 52 55 0 0 0
SMALL
GASTEIGER

@<TRIPOS>ATOM
      1  C17       -6.1650   -2.9240   33.0120 C.2   392  INH392      0.2520
      2  O4        -5.7660   -3.0020   34.1970 O.2   392  INH392     -0.2680
      3  N3        -5.4590   -3.4470   31.9560 N.am  392  INH392     -0.3490
      4  H20       -5.8530   -3.3410   31.0420 H     392  INH392      0.1630
      5  C14       -7.4630   -2.2640   32.7050 C.ar  392  INH392      0.0340
      6  C13       -8.6310   -2.6330   33.4430 C.ar  392  INH392      0.0410
      7  C12       -9.8970   -2.0360   33.1890 C.ar  392  INH392      0.0260
      8  C11       -9.9670   -1.0330   32.1480 C.ar  392  INH392      0.0410
      9  C10       -8.8020   -0.6480   31.3990 C.ar  392  INH392      0.0340
     10  C15       -7.5810   -1.2800   31.7030 C.ar  392  INH392      0.0340
     11  N2       -11.1120   -2.4330   33.9240 N.pl3 392  INH392     -0.1810
     12  C16      -12.1890   -1.4040   34.1020 C.3   392  INH392      0.1350
     13  S1       -11.8530   -3.9620   33.4430 S.O2  392  INH392      0.2110
     14  C36      -11.8890   -5.0550   34.8770 C.3   392  INH392      0.1800
     15  O3       -11.1130   -4.6480   32.2280 O.2   392  INH392     -0.2110
     16  O2       -13.3440   -3.7380   33.0520 O.2   392  INH392     -0.2110
     17  C9        -8.8920    0.4170   30.3360 C.2   392  INH392      0.2520
     18  N1        -9.8360    0.2460   29.3830 N.am  392  INH392     -0.3490
     19  H10       -9.8920    0.9240   28.6520 H     392  INH392      0.1630
     20  O1        -8.1370    1.3870   30.3030 O.2   392  INH392     -0.2680
     21  C7       -10.7880   -0.8810   29.3620 C.3   392  INH392      0.1140
     22  C8       -10.6140   -1.6040   28.0140 C.3   392  INH392      0.0370
     23  C6       -12.2140   -0.3720   29.6350 C.ar  392  INH392     -0.0360
     24  C1       -13.0710   -1.1590   30.4380 C.ar  392  INH392      0.0090
     25  C2       -14.3900   -0.7210   30.7170 C.ar  392  INH392      0.0010
     26  C3       -14.8590    0.5080   30.1950 C.ar  392  INH392      0.0000
     27  C4       -14.0150    1.3100   29.3920 C.ar  392  INH392      0.0010
     28  C5       -12.6930    0.8750   29.1110 C.ar  392  INH392      0.0090
     29  C18       -4.1400   -4.1690   32.0590 C.3   392  INH392      0.1190
     30  C26       -3.2730   -4.1230   30.7610 C.3   392  INH392      0.1660
     31  C27       -3.5720   -3.0100   29.7630 C.3   392  INH392      0.2660
     32  N4        -2.6120   -1.9180   29.5880 N.4   392  INH392     -0.0690
     33  H43       -1.7180   -2.2550   29.9090 H     392  INH392      0.2770
     34  H33       -2.9370   -1.1040   30.2190 H     392  INH392      0.2770
     35  C28       -2.4030   -1.3560   28.2100 C.3   392  INH392      0.2710
     36  C29       -0.9130   -1.3650   27.8710 C.ar  392  INH392     -0.0300
     37  C34       -0.0150   -2.2440   28.5330 C.ar  392  INH392      0.0090
     38  C33        1.3600   -2.2600   28.1590 C.ar  392  INH392      0.0030
     39  C32        1.8120   -1.4060   27.1290 C.ar  392  INH392      0.0370
     40  C31        0.9120   -0.5250   26.4670 C.ar  392  INH392      0.0680
     41  C30       -0.4370   -0.5200   26.8480 C.ar  392  INH392      0.0450
     42  O6         1.4530    0.2610   25.4640 O.3   392  INH392     -0.3560
     43  C35        2.0230   -0.2740   24.2590 C.3   392  INH392      0.2100
     44  O5        -1.8850   -4.0710   31.0180 O.3   392  INH392     -0.3920
     45  H30       -1.5060   -4.9330   30.8880 H     392  INH392      0.2100
     46  C19       -4.4170   -5.6990   32.3100 C.3   392  INH392      0.0660
     47  C20       -3.3050   -6.7510   32.1470 C.ar  392  INH392     -0.0560
     48  C25       -3.3380   -7.6270   31.0200 C.ar  392  INH392      0.0070
     49  C24       -2.3180   -8.5950   30.8360 C.ar  392  INH392      0.0010
     50  C23       -1.2560   -8.6900   31.7880 C.ar  392  INH392      0.0000
     51  C22       -1.2210   -7.8300   32.9060 C.ar  392  INH392      0.0010
     52  C21       -2.2470   -6.8550   33.0890 C.ar  392  INH392      0.0070
@<TRIPOS>BOND
     1    43    42    1
     2    42    40    1
     3    40    41   ar
     4    40    39   ar
     5    41    36   ar
     6    39    38   ar
     7    36    35    1
     8    36    37   ar
     9    22    21    1
    10    38    37   ar
    11    35    32    1
    12    19    18    1
    13    28    27   ar
    14    28    23   ar
    15    21    18    1
    16    21    23    1
    17    18    17   am
    18    27    26   ar
    19    32    31    1
    20    32    33    1
    21    32    34    1
    22    23    24   ar
    23    31    30    1
    24    26    25   ar
    25    20    17    2
    26    17     9    1
    27    24    25   ar
    28    30    44    1
    29    30    29    1
    30    49    48   ar
    31    49    50   ar
    32    45    44    1
    33    48    47   ar
    34     4     3    1
    35     9    10   ar
    36     9     8   ar
    37    10     5   ar
    38    50    51   ar
    39     3    29    1
    40     3     1   am
    41    29    46    1
    42    47    46    1
    43    47    52   ar
    44     8     7   ar
    45    15    13    2
    46     5     1    1
    47     5     6   ar
    48    51    52   ar
    49     1     2    2
    50    16    13    2
    51     7     6   ar
    52     7    11    1
    53    13    11    1
    54    13    14    1
    55    11    12    1
