@<TRIPOS>MOLECULE
./ligand/2v77_lig.pdb
 34 33 0 0 0
SMALL
GASTEIGER

@<TRIPOS>ATOM
      1  O1       115.0920   41.3610   43.7370 O.co2 312  INH312     -0.2464
      2  O2       114.1920   43.3080   44.2840 O.co2 312  INH312     -0.2464
      3  C1       115.1260   42.4690   44.3390 C.2   312  INH312      0.3560
      4  C2       116.3410   42.8290   45.1670 C.3   312  INH312      0.0499
      5  C3       116.7840   41.6810   46.1300 C.3   312  INH312     -0.0297
      6  C4       115.8290   41.4420   47.3460 C.3   312  INH312      0.0619
      7  C5       116.1300   40.1030   48.0050 C.2   312  INH312      0.3591
      8  O3       116.8650   40.0480   49.0260 O.co2 312  INH312     -0.2461
      9  O4       115.6020   39.0830   47.4850 O.co2 312  INH312     -0.2461
     10  C6       115.8490   42.6700   48.3550 C.3   312  INH312     -0.0268
     11  C7       114.9670   42.5080   49.6410 C.3   312  INH312      0.0622
     12  C8       113.5710   42.0430   49.3000 C.2   312  INH312      0.3591
     13  O5       112.7300   42.8520   48.8230 O.co2 312  INH312     -0.2461
     14  O6       113.3210   40.8160   49.5010 O.co2 312  INH312     -0.2461
     15  C9       115.0040   43.8260   50.5140 C.3   312  INH312     -0.0271
     16  C10      114.0620   43.8150   51.7720 C.3   312  INH312      0.0586
     17  C11      114.0210   45.2180   52.4390 C.3   312  INH312     -0.0521
     18  C12      114.5170   42.8040   52.8150 C.2   312  INH312      0.3588
     19  O7       115.4500   43.1130   53.6070 O.co2 312  INH312     -0.2461
     20  O8       113.9350   41.6880   52.8510 O.co2 312  INH312     -0.2461
     21  H1       117.1740   43.0570   44.4860 H     312  INH312      0.0379
     22  H2       116.1040   43.7190   45.7680 H     312  INH312      0.0379
     23  H3       116.8390   40.7490   45.5490 H     312  INH312      0.0278
     24  H4       117.7820   41.9280   46.5210 H     312  INH312      0.0278
     25  H5       114.8050   41.3780   46.9490 H     312  INH312      0.0415
     26  H6       116.8890   42.8260   48.6760 H     312  INH312      0.0281
     27  H7       115.4950   43.5590   47.8120 H     312  INH312      0.0281
     28  H8       115.4230   41.7130   50.2490 H     312  INH312      0.0415
     29  H9       116.0370   43.9760   50.8620 H     312  INH312      0.0281
     30  H10      114.7070   44.6690   49.8730 H     312  INH312      0.0281
     31  H11      113.0480   43.5470   51.4400 H     312  INH312      0.0412
     32  H12      113.3570   45.1880   53.3160 H     312  INH312      0.0238
     33  H13      113.6420   45.9560   51.7170 H     312  INH312      0.0238
     34  H14      115.0350   45.5030   52.7560 H     312  INH312      0.0238
@<TRIPOS>BOND
     1     1     3   ar
     2     2     3   ar
     3     3     4    1
     4     4    22    1
     5     4    21    1
     6     4     5    1
     7     5    24    1
     8     5    23    1
     9     5     6    1
    10     6    25    1
    11     6    10    1
    12     6     7    1
    13     7     9   ar
    14     7     8   ar
    15    10    27    1
    16    10    26    1
    17    10    11    1
    18    11    28    1
    19    11    15    1
    20    11    12    1
    21    12    14   ar
    22    12    13   ar
    23    15    30    1
    24    15    29    1
    25    15    16    1
    26    16    31    1
    27    16    18    1
    28    16    17    1
    29    17    34    1
    30    17    33    1
    31    17    32    1
    32    18    20   ar
    33    18    19   ar
