@<TRIPOS>MOLECULE
/tmp/ewbell/vina_2v77_2v77_lig/vina/vina3.pdbqt
 24 23 0 0 0
SMALL
GASTEIGER

@<TRIPOS>ATOM
      1  C6       114.0900   41.7180   48.9250 C.3   312  INH312      0.0300
      2  C4       114.9670   42.3480   50.0920 C.3   312  INH312      0.0850
      3  C3       114.7900   43.9000   50.1710 C.3   312  INH312      0.0250
      4  C2       115.5110   44.5800   51.3790 C.3   312  INH312      0.1110
      5  C1       114.5480   45.2050   52.3650 C.2   312  INH312      0.1390
      6  O1       115.0010   45.8400   53.3560 O.2   312  INH312     -0.6500
      7  O2       113.3190   45.0560   52.1500 O.3   312  INH312     -0.7760
      8  H        112.8050   44.5200   52.7240 H     312  INH312      0.1670
      9  C5       114.7220   41.7130   51.4530 C.2   312  INH312      0.1430
     10  O4       115.6740   41.0520   51.9520 O.2   312  INH312     -0.6500
     11  O3       113.6080   41.8470   52.0260 O.3   312  INH312     -0.7760
     12  H        113.3290   41.2160   52.6600 H     312  INH312      0.1670
     13  C7       114.8900   41.1430   47.7060 C.3   312  INH312      0.0850
     14  C9       115.7520   42.2760   47.0190 C.3   312  INH312      0.0300
     15  C10      116.0630   42.0410   45.4960 C.3   312  INH312      0.0800
     16  C11      117.1880   42.9960   45.0100 C.3   312  INH312      0.0210
     17  C12      114.8350   42.2660   44.6240 C.2   312  INH312      0.1430
     18  O8       114.4480   41.3190   43.8910 O.2   312  INH312     -0.6500
     19  O7       114.2530   43.3850   44.6580 O.3   312  INH312     -0.7760
     20  H        113.8320   43.6710   45.4460 H     312  INH312      0.1670
     21  C8       115.6890   39.9210   48.0950 C.2   312  INH312      0.1430
     22  O6       115.3060   38.8180   47.6020 O.2   312  INH312     -0.6500
     23  O5       116.6650   40.0250   48.8870 O.3   312  INH312     -0.7760
     24  H        117.4650   39.5720   48.7060 H     312  INH312      0.1670
@<TRIPOS>BOND
     1    18    17    2
     2    17    19    1
     3    17    15    1
     4    19    20    1
     5    16    15    1
     6    15    14    1
     7    14    13    1
     8    22    21    2
     9    13    21    1
    10    13     1    1
    11    21    23    1
    12    24    23    1
    13     1     2    1
    14     2     3    1
    15     2     9    1
    16     3     4    1
    17     4     5    1
    18     9    10    2
    19     9    11    1
    20    11    12    1
    21     7     5    1
    22     7     8    1
    23     5     6    2
