@<TRIPOS>MOLECULE
/tmp/ewbell/vina_2v77_2v77_lig/vina/vina4.pdbqt
 24 23 0 0 0
SMALL
GASTEIGER

@<TRIPOS>ATOM
      1  C6       115.4970   43.6240   49.9740 C.3   312  INH312      0.0300
      2  C4       115.2930   42.6050   48.7710 C.3   312  INH312      0.0850
      3  C3       116.5270   42.5960   47.8100 C.3   312  INH312      0.0250
      4  C2       116.2540   41.9780   46.4010 C.3   312  INH312      0.1110
      5  C1       117.1280   40.7790   46.1030 C.2   312  INH312      0.1390
      6  O1       117.3780   40.4760   44.9040 O.2   312  INH312     -0.6500
      7  O2       117.5690   40.1240   47.0810 O.3   312  INH312     -0.7760
      8  H        117.2860   40.3340   47.9500 H     312  INH312      0.1670
      9  C5       114.9550   41.1900   49.2180 C.2   312  INH312      0.1430
     10  O4       113.7320   40.8840   49.2580 O.2   312  INH312     -0.6500
     11  O3       115.8720   40.3880   49.5370 O.3   312  INH312     -0.7760
     12  H        116.5330   40.6510   50.1460 H     312  INH312      0.1670
     13  C7       114.8570   43.1990   51.3410 C.3   312  INH312      0.0850
     14  C9       115.7820   43.6290   52.5490 C.3   312  INH312      0.0300
     15  C10      116.0810   42.4910   53.5920 C.3   312  INH312      0.0800
     16  C11      117.6020   42.4110   53.8970 C.3   312  INH312      0.0210
     17  C12      115.6210   41.1280   53.0950 C.2   312  INH312      0.1430
     18  O8       114.4390   40.7750   53.3430 O.2   312  INH312     -0.6500
     19  O7       116.4320   40.3990   52.4600 O.3   312  INH312     -0.7760
     20  H        116.2610   39.4820   52.3620 H     312  INH312      0.1670
     21  C8       113.4320   43.6860   51.4600 C.2   312  INH312      0.1430
     22  O6       113.2600   44.7750   52.0870 O.2   312  INH312     -0.6500
     23  O5       112.4860   43.0120   50.9710 O.3   312  INH312     -0.7760
     24  H        112.5650   42.0810   50.8950 H     312  INH312      0.1670
@<TRIPOS>BOND
     1     6     5    2
     2     5     4    1
     3     5     7    1
     4     4     3    1
     5     7     8    1
     6     3     2    1
     7     2     9    1
     8     2     1    1
     9     9    10    2
    10     9    11    1
    11    11    12    1
    12     1    13    1
    13    24    23    1
    14    23    21    1
    15    13    21    1
    16    13    14    1
    17    21    22    2
    18    20    19    1
    19    19    17    1
    20    14    15    1
    21    17    18    2
    22    17    15    1
    23    15    16    1
