@<TRIPOS>MOLECULE
/tmp/ewbell/vina_2v77_2v77_lig/vina/vina2.pdbqt
 24 23 0 0 0
SMALL
GASTEIGER

@<TRIPOS>ATOM
      1  C6       115.7820   42.9300   49.1040 C.3   312  INH312      0.0300
      2  C4       115.7050   42.1180   47.7390 C.3   312  INH312      0.0850
      3  C3       116.6610   42.7200   46.6570 C.3   312  INH312      0.0250
      4  C2       116.4760   42.1330   45.2220 C.3   312  INH312      0.1110
      5  C1       115.0810   42.3430   44.6730 C.2   312  INH312      0.1390
      6  O1       114.5630   43.4920   44.7190 O.2   312  INH312     -0.6500
      7  O2       114.4890   41.3430   44.1930 O.3   312  INH312     -0.7760
      8  H        114.3450   41.2840   43.2680 H     312  INH312      0.1670
      9  C5       115.9540   40.6250   47.9000 C.2   312  INH312      0.1430
     10  O4       117.1440   40.2690   48.1200 O.2   312  INH312     -0.6500
     11  O3       115.0020   39.8070   47.8010 O.3   312  INH312     -0.7760
     12  H        114.6910   39.3560   48.5610 H     312  INH312      0.1670
     13  C7       114.9970   42.3080   50.3100 C.3   312  INH312      0.0850
     14  C9       115.3500   43.0610   51.6540 C.3   312  INH312      0.0300
     15  C10      115.7330   44.5770   51.4840 C.3   312  INH312      0.0800
     16  C11      117.1020   44.8760   52.1550 C.3   312  INH312      0.0210
     17  C12      114.6890   45.5000   52.0960 C.2   312  INH312      0.1430
     18  O8       115.0890   46.5350   52.6900 O.2   312  INH312     -0.6500
     19  O7       113.4670   45.2010   51.9930 O.3   312  INH312     -0.7760
     20  H        112.8190   45.8780   51.9690 H     312  INH312      0.1670
     21  C8       113.5150   42.2310   50.0260 C.2   312  INH312      0.1430
     22  O6       112.9950   41.0750   50.0630 O.2   312  INH312     -0.6500
     23  O5       112.8660   43.2740   49.7480 O.3   312  INH312     -0.7760
     24  H        113.3110   44.0950   49.6660 H     312  INH312      0.1670
@<TRIPOS>BOND
     1     8     7    1
     2     7     5    1
     3     5     6    2
     4     5     4    1
     5     4     3    1
     6     3     2    1
     7     2     9    1
     8     2     1    1
     9    11     9    1
    10    11    12    1
    11     9    10    2
    12     1    13    1
    13    24    23    1
    14    23    21    1
    15    21    22    2
    16    21    13    1
    17    13    14    1
    18    15    14    1
    19    15    17    1
    20    15    16    1
    21    20    19    1
    22    19    17    1
    23    17    18    2
