@<TRIPOS>MOLECULE
/tmp/ewbell/vina_2v77_2v77_lig/vina/vina1.pdbqt
 24 23 0 0 0
SMALL
GASTEIGER

@<TRIPOS>ATOM
      1  C6       115.9320   42.9290   48.5570 C.3   312  INH312      0.0300
      2  C4       115.8810   41.8570   47.3850 C.3   312  INH312      0.0850
      3  C3       116.3430   42.4720   46.0230 C.3   312  INH312      0.0250
      4  C2       115.2310   42.5430   44.9270 C.3   312  INH312      0.1110
      5  C1       115.3710   41.4660   43.8740 C.2   312  INH312      0.1390
      6  O1       116.5110   40.9880   43.6220 O.2   312  INH312     -0.6500
      7  O2       114.3260   41.0920   43.2830 O.3   312  INH312     -0.7760
      8  H        113.8320   40.3690   43.6180 H     312  INH312      0.1670
      9  C5       116.6590   40.5840   47.6860 C.2   312  INH312      0.1430
     10  O4       117.5360   40.2420   46.8460 O.2   312  INH312     -0.6500
     11  O3       116.4100   39.9170   48.7250 O.3   312  INH312     -0.7760
     12  H        116.7810   40.1740   49.5460 H     312  INH312      0.1670
     13  C7       115.0390   42.6140   49.8070 C.3   312  INH312      0.0850
     14  C9       114.9610   43.8660   50.7690 C.3   312  INH312      0.0300
     15  C10      114.3760   43.5690   52.1970 C.3   312  INH312      0.0800
     16  C11      114.6230   44.7680   53.1540 C.3   312  INH312      0.0210
     17  C12      114.9970   42.3260   52.8200 C.2   312  INH312      0.1430
     18  O8       114.2420   41.3550   53.0830 O.2   312  INH312     -0.6500
     19  O7       116.2370   42.3100   53.0550 O.3   312  INH312     -0.7760
     20  H        116.5850   41.7210   53.6960 H     312  INH312      0.1670
     21  C8       113.6880   42.0740   49.3990 C.2   312  INH312      0.1430
     22  O6       113.5690   40.8120   49.3770 O.2   312  INH312     -0.6500
     23  O5       112.7570   42.8630   49.0830 O.3   312  INH312     -0.7760
     24  H        112.8900   43.4990   48.4070 H     312  INH312      0.1670
@<TRIPOS>BOND
     1     7     8    1
     2     7     5    1
     3     6     5    2
     4     5     4    1
     5     4     3    1
     6     3     2    1
     7    10     9    2
     8     2     9    1
     9     2     1    1
    10     9    11    1
    11    24    23    1
    12     1    13    1
    13    11    12    1
    14    23    21    1
    15    22    21    2
    16    21    13    1
    17    13    14    1
    18    14    15    1
    19    15    17    1
    20    15    16    1
    21    17    19    1
    22    17    18    2
    23    19    20    1
