@<TRIPOS>MOLECULE
/tmp/ewbell/vina_2v77_2v77_lig/vina/vina5.pdbqt
 24 23 0 0 0
SMALL
GASTEIGER

@<TRIPOS>ATOM
      1  C6       114.6880   43.7020   51.4750 C.3   312  INH312      0.0300
      2  C4       114.5820   43.2910   49.9430 C.3   312  INH312      0.0850
      3  C3       115.8920   42.5990   49.4420 C.3   312  INH312      0.0250
      4  C2       115.8310   42.0710   47.9730 C.3   312  INH312      0.1110
      5  C1       116.2240   40.6140   47.8530 C.2   312  INH312      0.1390
      6  O1       117.2660   40.3030   47.2120 O.2   312  INH312     -0.6500
      7  O2       115.4780   39.7640   48.4010 O.3   312  INH312     -0.7760
      8  H        114.5470   39.8290   48.3090 H     312  INH312      0.1670
      9  C5       113.3680   42.4310   49.6230 C.2   312  INH312      0.1430
     10  O4       113.4450   41.2070   49.9210 O.2   312  INH312     -0.6500
     11  O3       112.3550   42.9390   49.0760 O.3   312  INH312     -0.7760
     12  H        112.1740   43.8520   49.1810 H     312  INH312      0.1670
     13  C7       115.4730   42.7030   52.3940 C.3   312  INH312      0.0850
     14  C9       116.6410   43.4460   53.1590 C.3   312  INH312      0.0300
     15  C10      116.5410   45.0150   53.1560 C.3   312  INH312      0.0800
     16  C11      117.8950   45.6510   52.7370 C.3   312  INH312      0.0210
     17  C12      116.1600   45.5620   54.5250 C.2   312  INH312      0.1430
     18  O8       116.6130   46.6880   54.8590 O.2   312  INH312     -0.6500
     19  O7       115.4130   44.8760   55.2760 O.3   312  INH312     -0.7760
     20  H        115.2230   45.1720   56.1450 H     312  INH312      0.1670
     21  C8       114.5400   41.9370   53.3040 C.2   312  INH312      0.1430
     22  O6       114.7560   42.0410   54.5480 O.2   312  INH312     -0.6500
     23  O5       113.6200   41.2260   52.8170 O.3   312  INH312     -0.7760
     24  H        112.7400   41.5470   52.7960 H     312  INH312      0.1670
@<TRIPOS>BOND
     1     6     5    2
     2     5     4    1
     3     5     7    1
     4     4     3    1
     5     8     7    1
     6    11    12    1
     7    11     9    1
     8     3     2    1
     9     9    10    2
    10     9     2    1
    11     2     1    1
    12     1    13    1
    13    13    14    1
    14    13    21    1
    15    16    15    1
    16    24    23    1
    17    23    21    1
    18    15    14    1
    19    15    17    1
    20    21    22    2
    21    17    18    2
    22    17    19    1
    23    19    20    1
