@<TRIPOS>MOLECULE
./ligand/2jke_lig.pdb
 25 25 0 0 0
SMALL
GASTEIGER

@<TRIPOS>ATOM
      1  N1        24.2380   43.5920   67.5090 N.4   1385  INH1385     0.2346
      2  C1        25.3890   42.7210   67.8600 C.3   1385  INH1385     0.0301
      3  C2        25.7250   41.9230   66.5930 C.3   1385  INH1385     0.0893
      4  O1        24.6290   41.0330   66.2910 O.3   1385  INH1385    -0.3894
      5  H1        26.2430   43.3710   68.1010 H     1385  INH1385     0.0900
      6  H2        23.5580   43.0230   67.0300 H     1385  INH1385     0.2019
      7  H3        24.5750   44.3090   66.8860 H     1385  INH1385     0.2019
      8  H4        25.8800   42.6150   65.7520 H     1385  INH1385     0.0614
      9  H5        26.6410   41.3370   66.7590 H     1385  INH1385     0.0614
     10  H6        24.8310   40.5360   65.5070 H     1385  INH1385     0.2097
     11  C3        23.2300   43.2230   69.7220 C.3   1385  INH1385     0.1231
     12  C4        24.5590   42.6270   70.2120 C.3   1385  INH1385     0.1171
     13  C5        25.1710   41.8020   69.0820 C.3   1385  INH1385     0.1280
     14  O2        22.5830   43.8930   70.7790 O.3   1385  INH1385    -0.3838
     15  C6        23.5560   44.2570   68.6290 C.3   1385  INH1385    -0.0040
     16  O3        24.3790   41.8000   71.3270 O.3   1385  INH1385    -0.3862
     17  O4        26.4550   41.3620   69.5490 O.3   1385  INH1385    -0.3835
     18  H7        24.2110   45.0360   69.0460 H     1385  INH1385     0.0840
     19  H8        22.6230   44.7160   68.2690 H     1385  INH1385     0.0840
     20  H9        22.5810   42.4290   69.3230 H     1385  INH1385     0.0674
     21  H10       22.3720   43.2720   71.4660 H     1385  INH1385     0.2101
     22  H11       25.2410   43.4470   70.4810 H     1385  INH1385     0.0649
     23  H12       25.2190   41.4510   71.6010 H     1385  INH1385     0.2100
     24  H13       24.5280   40.9490   68.8200 H     1385  INH1385     0.0678
     25  H14       26.8760   40.8410   68.8750 H     1385  INH1385     0.2102
@<TRIPOS>BOND
     1    10     4    1
     2     8     3    1
     3     4     3    1
     4     3     9    1
     5     3     2    1
     6     7     1    1
     7     6     1    1
     8     1     2    1
     9     1    15    1
    10     2     5    1
    11     2    13    1
    12    19    15    1
    13    15    18    1
    14    15    11    1
    15    24    13    1
    16    25    17    1
    17    13    17    1
    18    13    12    1
    19    20    11    1
    20    11    12    1
    21    11    14    1
    22    12    22    1
    23    12    16    1
    24    14    21    1
    25    16    23    1
