@<TRIPOS>MOLECULE
/tmp/ewbell/vina_2jke_2jke_lig/vina/vina1.pdbqt
 17 17 0 0 0
SMALL
GASTEIGER

@<TRIPOS>ATOM
      1  N1        24.3850   43.9730   67.5130 N.4   1385  INH1385    -0.0640
      2  C1        25.5170   43.0640   67.8290 C.3   1385  INH1385     0.2400
      3  H2        23.6990   43.4420   67.0000 H     1385  INH1385     0.2770
      4  H3        24.7410   44.7140   66.9300 H     1385  INH1385     0.2770
      5  C3        23.3510   43.5100   69.6960 C.3   1385  INH1385     0.1750
      6  C4        24.6640   42.8650   70.1660 C.3   1385  INH1385     0.1790
      7  C5        25.2710   42.0880   69.0000 C.3   1385  INH1385     0.1820
      8  C6        23.7050   44.5920   68.6600 C.3   1385  INH1385     0.2670
      9  C2        25.8500   42.3250   66.5250 C.3   1385  INH1385     0.1990
     10  O1        25.4950   40.9330   66.6680 O.3   1385  INH1385    -0.3990
     11  H6        24.7560   40.8530   67.2610 H     1385  INH1385     0.2090
     12  O4        26.5430   41.6010   69.4540 O.3   1385  INH1385    -0.3910
     13  H14       26.4380   41.1830   70.3010 H     1385  INH1385     0.2100
     14  O3        24.4590   41.9860   71.2360 O.3   1385  INH1385    -0.3900
     15  H12       23.8250   41.3250   70.9840 H     1385  INH1385     0.2100
     16  O2        22.7070   44.1370   70.7810 O.3   1385  INH1385    -0.3910
     17  H10       23.2960   44.7680   71.1780 H     1385  INH1385     0.2100
@<TRIPOS>BOND
     1     9    10    1
     2     9     2    1
     3    10    11    1
     4     4     1    1
     5     3     1    1
     6     1     2    1
     7     1     8    1
     8     2     7    1
     9     8     5    1
    10     7    12    1
    11     7     6    1
    12    12    13    1
    13     5     6    1
    14     5    16    1
    15     6    14    1
    16    16    17    1
    17    15    14    1
