@<TRIPOS>MOLECULE
/tmp/ewbell/vina_2jke_2jke_lig/vina/vina4.pdbqt
 17 17 0 0 0
SMALL
GASTEIGER

@<TRIPOS>ATOM
      1  N1        24.5920   41.3320   67.8210 N.4   1385  INH1385    -0.0640
      2  C1        23.4340   41.7680   68.6430 C.3   1385  INH1385     0.2400
      3  H2        24.2960   41.3170   66.8580 H     1385  INH1385     0.2770
      4  H3        24.8410   40.4000   68.1110 H     1385  INH1385     0.2770
      5  C3        25.4270   43.6430   67.6980 C.3   1385  INH1385     0.1750
      6  C4        24.4550   44.0380   68.8200 C.3   1385  INH1385     0.1790
      7  C5        23.1430   43.2850   68.6190 C.3   1385  INH1385     0.1820
      8  C6        25.8020   42.1640   67.9040 C.3   1385  INH1385     0.2670
      9  C2        22.2320   40.9440   68.1620 C.3   1385  INH1385     0.1990
     10  O1        22.4810   40.4900   66.8140 O.3   1385  INH1385    -0.3990
     11  H6        22.0380   41.0630   66.1990 H     1385  INH1385     0.2090
     12  O4        22.3150   43.6020   69.7480 O.3   1385  INH1385    -0.3910
     13  H14       21.4780   43.9340   69.4440 H     1385  INH1385     0.2100
     14  O3        24.1900   45.4130   68.8190 O.3   1385  INH1385    -0.3900
     15  H12       24.1900   45.7360   69.7120 H     1385  INH1385     0.2100
     16  O2        26.6060   44.4090   67.7870 O.3   1385  INH1385    -0.3910
     17  H10       26.4610   45.1470   68.3670 H     1385  INH1385     0.2100
@<TRIPOS>BOND
     1    11    10    1
     2    10     9    1
     3     3     1    1
     4     5    16    1
     5     5     8    1
     6     5     6    1
     7    16    17    1
     8     1     8    1
     9     1     4    1
    10     1     2    1
    11     9     2    1
    12     7     2    1
    13     7     6    1
    14     7    12    1
    15    14     6    1
    16    14    15    1
    17    13    12    1
