@<TRIPOS>MOLECULE
/tmp/ewbell/vina_2jke_2jke_lig/vina/vina5.pdbqt
 17 17 0 0 0
SMALL
GASTEIGER

@<TRIPOS>ATOM
      1  N1        26.0760   43.4090   67.2920 N.4   1385  INH1385    -0.0640
      2  C1        25.2210   44.4920   67.8400 C.3   1385  INH1385     0.2400
      3  H2        26.8890   43.3310   67.8820 H     1385  INH1385     0.2770
      4  H3        26.3590   43.6820   66.3640 H     1385  INH1385     0.2770
      5  C3        24.8040   41.7140   68.5410 C.3   1385  INH1385     0.1750
      6  C4        23.7150   42.7610   68.8240 C.3   1385  INH1385     0.1790
      7  C5        24.3870   44.1080   69.0830 C.3   1385  INH1385     0.1820
      8  C6        25.4620   42.0760   67.1970 C.3   1385  INH1385     0.2670
      9  C2        26.1550   45.6770   68.1190 C.3   1385  INH1385     0.1990
     10  O1        25.3700   46.8030   68.5650 O.3   1385  INH1385    -0.3990
     11  H6        24.9830   47.2370   67.8130 H     1385  INH1385     0.2090
     12  O4        23.3310   45.0680   69.2300 O.3   1385  INH1385    -0.3910
     13  H14       23.0020   45.3130   68.3730 H     1385  INH1385     0.2100
     14  O3        22.9440   42.4210   69.9420 O.3   1385  INH1385    -0.3900
     15  H12       23.0040   43.1120   70.5900 H     1385  INH1385     0.2100
     16  O2        24.2240   40.4370   68.4150 O.3   1385  INH1385    -0.3910
     17  H10       23.5970   40.3020   69.1160 H     1385  INH1385     0.2100
@<TRIPOS>BOND
     1     4     1    1
     2     8     1    1
     3     8     5    1
     4     1     2    1
     5     1     3    1
     6    11    10    1
     7     2     9    1
     8     2     7    1
     9     9    10    1
    10    13    12    1
    11    16     5    1
    12    16    17    1
    13     5     6    1
    14     6     7    1
    15     6    14    1
    16     7    12    1
    17    14    15    1
