@<TRIPOS>MOLECULE
/tmp/ewbell/vina_2jke_2jke_lig/vina/vina2.pdbqt
 17 17 0 0 0
SMALL
GASTEIGER

@<TRIPOS>ATOM
      1  N1        22.3760   42.7560   69.4000 N.4   1385  INH1385    -0.0640
      2  C1        22.9270   42.0120   68.2390 C.3   1385  INH1385     0.2400
      3  H2        21.9430   42.0870   70.0160 H     1385  INH1385     0.2770
      4  H3        21.6780   43.3940   69.0520 H     1385  INH1385     0.2770
      5  C3        24.5480   42.6530   70.5500 C.3   1385  INH1385     0.1750
      6  C4        25.2070   42.2100   69.2350 C.3   1385  INH1385     0.1790
      7  C5        24.2540   41.2670   68.5030 C.3   1385  INH1385     0.1820
      8  C6        23.3390   43.5360   70.1930 C.3   1385  INH1385     0.2670
      9  C2        21.8170   41.0600   67.7730 C.3   1385  INH1385     0.1990
     10  O1        22.2810   40.3200   66.6240 O.3   1385  INH1385    -0.3990
     11  H6        23.2230   40.4170   66.5430 H     1385  INH1385     0.2090
     12  O4        24.8650   40.9730   67.2380 O.3   1385  INH1385    -0.3910
     13  H14       24.8250   41.7410   66.6800 H     1385  INH1385     0.2100
     14  O3        26.4180   41.5430   69.4570 O.3   1385  INH1385    -0.3900
     15  H12       27.0660   42.1610   69.7740 H     1385  INH1385     0.2100
     16  O2        25.4500   43.4300   71.3040 O.3   1385  INH1385    -0.3910
     17  H10       26.1900   42.8940   71.5620 H     1385  INH1385     0.2100
@<TRIPOS>BOND
     1    11    10    1
     2    10     9    1
     3    13    12    1
     4    12     7    1
     5     9     2    1
     6     2     7    1
     7     2     1    1
     8     7     6    1
     9     4     1    1
    10     6    14    1
    11     6     5    1
    12     1     3    1
    13     1     8    1
    14    14    15    1
    15     8     5    1
    16     5    16    1
    17    16    17    1
