@<TRIPOS>MOLECULE
/tmp/ewbell/vina_2jke_2jke_lig/vina/vina3.pdbqt
 17 17 0 0 0
SMALL
GASTEIGER

@<TRIPOS>ATOM
      1  N1        25.3110   43.8540   67.4480 N.4   1385  INH1385    -0.0640
      2  C1        25.1450   42.7040   68.3730 C.3   1385  INH1385     0.2400
      3  H2        24.7490   43.6740   66.6310 H     1385  INH1385     0.2770
      4  H3        26.2830   43.8980   67.1840 H     1385  INH1385     0.2770
      5  C3        23.5280   45.0940   68.6020 C.3   1385  INH1385     0.1750
      6  C4        23.5930   44.0830   69.7580 C.3   1385  INH1385     0.1790
      7  C5        23.8260   42.6910   69.1770 C.3   1385  INH1385     0.1820
      8  C6        24.9300   45.1740   67.9710 C.3   1385  INH1385     0.2670
      9  C2        25.3100   41.4400   67.5190 C.3   1385  INH1385     0.1990
     10  O1        24.3200   40.4670   67.9180 O.3   1385  INH1385    -0.3990
     11  H6        24.1960   39.8350   67.2200 H     1385  INH1385     0.2090
     12  O4        23.9900   41.8060   70.2950 O.3   1385  INH1385    -0.3910
     13  H14       24.5110   41.0560   70.0320 H     1385  INH1385     0.2100
     14  O3        22.4090   44.0680   70.5040 O.3   1385  INH1385    -0.3900
     15  H12       21.7410   44.5650   70.0470 H     1385  INH1385     0.2100
     16  O2        23.1970   46.3710   69.0960 O.3   1385  INH1385    -0.3910
     17  H10       23.9160   46.9700   68.9330 H     1385  INH1385     0.2100
@<TRIPOS>BOND
     1     3     1    1
     2     4     1    1
     3    11    10    1
     4     1     8    1
     5     1     2    1
     6     9    10    1
     7     9     2    1
     8     8     5    1
     9     2     7    1
    10     5    16    1
    11     5     6    1
    12    17    16    1
    13     7     6    1
    14     7    12    1
    15     6    14    1
    16    13    12    1
    17    15    14    1
