@<TRIPOS>MOLECULE
./ligand/1q4w_lig.pdb
 22 23 0 0 0
SMALL
GASTEIGER

@<TRIPOS>ATOM
      1  C1        18.6410   17.3940   19.0900 C.ar  372  INH372      0.0254
      2  N1        19.6860   17.6400   18.0540 N.pl3 372  INH372     -0.3579
      3  C2        17.3550   16.9100   18.7030 C.ar  372  INH372     -0.0393
      4  C3        16.3530   16.6710   19.6710 C.ar  372  INH372     -0.0383
      5  C4        16.6130   16.9090   21.0600 C.ar  372  INH372      0.0420
      6  N2        15.6060   16.6680   21.9970 N.pl3 372  INH372     -0.3066
      7  C5        15.8180   16.8800   23.2760 C.3   372  INH372      0.2065
      8  N3        14.8440   16.6520   24.2460 N.3   372  INH372     -0.2905
      9  N4        17.0830   17.3690   23.7750 N.am  372  INH372     -0.2741
     10  C6        18.1780   17.6440   22.8740 C.2   372  INH372      0.2485
     11  O1        19.2450   18.0620   23.3400 O.2   372  INH372     -0.2700
     12  C7        17.9170   17.4020   21.4480 C.ar  372  INH372      0.0594
     13  C8        18.9190   17.6360   20.4540 C.ar  372  INH372     -0.0271
     14  H1        19.4790   17.4620   17.0610 H     372  INH372      0.1423
     15  H2        20.6150   17.9880   18.3320 H     372  INH372      0.1423
     16  H3        17.1450   16.7240   17.6560 H     372  INH372      0.0636
     17  H4        15.3810   16.3050   19.3600 H     372  INH372      0.0637
     18  H5        13.9150   16.3030   23.9710 H     372  INH372      0.1219
     19  H6        15.0530   16.8330   25.2380 H     372  INH372      0.1219
     20  H7        17.2020   17.5190   24.7570 H     372  INH372      0.1525
     21  H8        19.8960   18.0010   20.7490 H     372  INH372      0.0644
     22  H9        14.6890   16.3210   21.6820 H     372  INH372      0.1495
@<TRIPOS>BOND
     1     1    13   ar
     2     1     3   ar
     3     1     2    1
     4     2    15    1
     5     2    14    1
     6     3    16    1
     7     3     4   ar
     8     4    17    1
     9     4     5   ar
    10     5    12   ar
    11     5     6    1
    12     6    22    1
    13     6     7    1
    14     7     9    1
    15     7     8    1
    16     8    19    1
    17     8    18    1
    18     9    20    1
    19     9    10   am
    20    10    12    1
    21    10    11    2
    22    12    13   ar
    23    13    21    1
