@<TRIPOS>MOLECULE
/tmp/ewbell/vina_1q4w_1q4w_lig/vina/vina5.pdbqt
 19 20 0 0 0
SMALL
GASTEIGER

@<TRIPOS>ATOM
      1  C1        18.6380   17.7900   19.7470 C.ar  372  INH372      0.0260
      2  C2        17.9430   17.2930   20.8900 C.ar  372  INH372      0.0310
      3  C3        16.6570   16.7210   20.7590 C.ar  372  INH372      0.0390
      4  C4        16.0280   16.6310   19.4740 C.ar  372  INH372      0.1370
      5  N2        14.7590   16.0590   19.3710 N.pl3 372  INH372     -0.0500
      6  C5        14.1620   15.9630   18.2040 C.3   372  INH372      0.7550
      7  N3        12.8960   15.4010   18.0530 N.3   372  INH372     -0.3870
      8  N4        14.7770   16.4340   16.9850 N.am  372  INH372     -0.3120
      9  C6        16.0890   17.0400   17.0030 C.2   372  INH372      0.2560
     10  O1        16.5810   17.4300   15.9370 O.2   372  INH372     -0.2670
     11  C7        16.7380   17.1340   18.3180 C.ar  372  INH372      0.0670
     12  C8        18.0380   17.7120   18.4700 C.ar  372  INH372      0.0480
     13  H5        12.3900   15.0420   18.8760 H     372  INH372      0.1530
     14  H6        12.4650   15.3450   17.1200 H     372  INH372      0.1530
     15  H7        14.2890   16.3400   16.1170 H     372  INH372      0.1660
     16  H9        14.2870   15.7090   20.2160 H     372  INH372      0.2710
     17  N1        19.9950   18.3910   19.9050 N.pl3 372  INH372     -0.3990
     18  H2        20.4420   18.4160   20.8320 H     372  INH372      0.1560
     19  H1        20.4840   18.7820   19.0870 H     372  INH372      0.1560
@<TRIPOS>BOND
     1    10     9    2
     2    15     8    1
     3     8     9   am
     4     8     6    1
     5     9    11    1
     6    14     7    1
     7     7     6    1
     8     7    13    1
     9     6     5    1
    10    11    12   ar
    11    11     4   ar
    12    12     1   ar
    13    19    17    1
    14     5     4    1
    15     5    16    1
    16     4     3   ar
    17     1    17    1
    18     1     2   ar
    19    17    18    1
    20     3     2   ar
