@<TRIPOS>MOLECULE
/tmp/ewbell/vina_1q4w_1q4w_lig/vina/vina3.pdbqt
 19 20 0 0 0
SMALL
GASTEIGER

@<TRIPOS>ATOM
      1  C1        18.8090   18.0030   18.2870 C.ar  372  INH372      0.0260
      2  C2        19.5680   18.5950   19.3410 C.ar  372  INH372      0.0310
      3  C3        19.1170   18.5300   20.6790 C.ar  372  INH372      0.0390
      4  C4        17.8860   17.8690   21.0000 C.ar  372  INH372      0.1370
      5  N2        17.4630   17.8160   22.3300 N.pl3 372  INH372     -0.0500
      6  C5        16.3400   17.2150   22.6500 C.3   372  INH372      0.7550
      7  N3        15.8780   17.1380   23.9630 N.3   372  INH372     -0.3870
      8  N4        15.4960   16.5830   21.6610 N.am  372  INH372     -0.3120
      9  C6        15.8600   16.5920   20.2630 C.2   372  INH372      0.2560
     10  O1        15.1110   16.0400   19.4480 O.2   372  INH372     -0.2670
     11  C7        17.1210   17.2680   19.9290 C.ar  372  INH372      0.0670
     12  C8        17.5930   17.3460   18.5800 C.ar  372  INH372      0.0480
     13  H5        16.4220   17.5640   24.7260 H     372  INH372      0.1530
     14  H6        14.9920   16.6560   24.1690 H     372  INH372      0.1530
     15  H7        14.6490   16.1340   21.9490 H     372  INH372      0.1660
     16  H9        18.0370   18.2520   23.0650 H     372  INH372      0.2710
     17  N1        19.3010   18.0820   16.8810 N.pl3 372  INH372     -0.3990
     18  H2        20.1050   17.5110   16.5840 H     372  INH372      0.1560
     19  H1        18.8380   18.7080   16.2070 H     372  INH372      0.1560
@<TRIPOS>BOND
     1    19    17    1
     2    18    17    1
     3    17     1    1
     4     1    12   ar
     5     1     2   ar
     6    12    11   ar
     7     2     3   ar
     8    10     9    2
     9    11     9    1
    10    11     4   ar
    11     9     8   am
    12     3     4   ar
    13     4     5    1
    14     8    15    1
    15     8     6    1
    16     5     6    1
    17     5    16    1
    18     6     7    1
    19     7    14    1
    20     7    13    1
