@<TRIPOS>MOLECULE
/tmp/ewbell/vina_1q4w_1q4w_lig/vina/vina4.pdbqt
 19 20 0 0 0
SMALL
GASTEIGER

@<TRIPOS>ATOM
      1  C1        16.6710   17.2540   22.3380 C.ar  372  INH372      0.0260
      2  C2        15.7160   16.6680   21.4530 C.ar  372  INH372      0.0310
      3  C3        15.9340   16.6630   20.0570 C.ar  372  INH372      0.0390
      4  C4        17.1200   17.2480   19.5050 C.ar  372  INH372      0.1370
      5  N2        17.3150   17.2280   18.1220 N.pl3 372  INH372     -0.0500
      6  C5        18.3940   17.7560   17.5910 C.3   372  INH372      0.7550
      7  N3        18.6290   17.7600   16.2170 N.3   372  INH372     -0.3870
      8  N4        19.4240   18.3730   18.3950 N.am  372  INH372     -0.3120
      9  C6        19.3010   18.4370   19.8330 C.2   372  INH372      0.2560
     10  O1        20.2040   18.9740   20.4860 O.2   372  INH372     -0.2670
     11  C7        18.0870   17.8380   20.4050 C.ar  372  INH372      0.0670
     12  C8        17.8470   17.8360   21.8150 C.ar  372  INH372      0.0480
     13  H5        17.9430   17.3380   15.5760 H     372  INH372      0.1530
     14  H6        19.4900   18.1840   15.8440 H     372  INH372      0.1530
     15  H7        20.2310   18.7620   17.9500 H     372  INH372      0.1660
     16  H9        16.6050   16.7950   17.5140 H     372  INH372      0.2710
     17  N1        16.4230   17.2500   23.8090 N.pl3 372  INH372     -0.3990
     18  H2        16.1100   18.1120   24.2810 H     372  INH372      0.1560
     19  H1        16.5630   16.3880   24.3530 H     372  INH372      0.1560
@<TRIPOS>BOND
     1    13     7    1
     2    14     7    1
     3     7     6    1
     4    16     5    1
     5     6     5    1
     6     6     8    1
     7    15     8    1
     8     5     4    1
     9     8     9   am
    10     4     3   ar
    11     4    11   ar
    12     9    11    1
    13     9    10    2
    14     3     2   ar
    15    11    12   ar
    16     2     1   ar
    17    12     1   ar
    18     1    17    1
    19    17    18    1
    20    17    19    1
