@<TRIPOS>MOLECULE
/tmp/ewbell/vina_1q4w_1q4w_lig/vina/vina1.pdbqt
 19 20 0 0 0
SMALL
GASTEIGER

@<TRIPOS>ATOM
      1  C1        18.3070   17.3770   19.2720 C.ar  372  INH372      0.0260
      2  C2        17.0160   16.8900   18.9070 C.ar  372  INH372      0.0310
      3  C3        16.0270   16.6590   19.8910 C.ar  372  INH372      0.0390
      4  C4        16.3060   16.9090   21.2740 C.ar  372  INH372      0.1370
      5  N2        15.3120   16.6770   22.2270 N.pl3 372  INH372     -0.0500
      6  C5        15.5420   16.9000   23.5010 C.3   372  INH372      0.7550
      7  N3        14.5820   16.6810   24.4860 N.3   372  INH372     -0.3870
      8  N4        16.8140   17.3930   23.9780 N.am  372  INH372     -0.3120
      9  C6        17.8970   17.6600   23.0600 C.2   372  INH372      0.2560
     10  O1        18.9700   18.0810   23.5070 O.2   372  INH372     -0.2670
     11  C7        17.6160   17.4050   21.6400 C.ar  372  INH372      0.0670
     12  C8        18.6040   17.6300   20.6300 C.ar  372  INH372      0.0480
     13  H5        13.6490   16.3300   24.2270 H     372  INH372      0.1530
     14  H6        14.8040   16.8710   25.4740 H     372  INH372      0.1530
     15  H7        16.9470   17.5520   24.9570 H     372  INH372      0.1660
     16  H9        14.3910   16.3280   21.9280 H     372  INH372      0.2710
     17  N1        19.3380   17.6130   18.2200 N.pl3 372  INH372     -0.3990
     18  H2        20.1760   17.0150   18.1750 H     372  INH372      0.1560
     19  H1        19.2120   18.3740   17.5370 H     372  INH372      0.1560
@<TRIPOS>BOND
     1    19    17    1
     2    18    17    1
     3    17     1    1
     4     2     1   ar
     5     2     3   ar
     6     1    12   ar
     7     3     4   ar
     8    12    11   ar
     9     4    11   ar
    10     4     5    1
    11    11     9    1
    12    16     5    1
    13     5     6    1
    14     9    10    2
    15     9     8   am
    16     6     8    1
    17     6     7    1
    18     8    15    1
    19    13     7    1
    20     7    14    1
