@<TRIPOS>MOLECULE
/tmp/ewbell/vina_1q4w_1q4w_lig/vina/vina2.pdbqt
 19 20 0 0 0
SMALL
GASTEIGER

@<TRIPOS>ATOM
      1  C1        16.1790   17.0190   22.4000 C.ar  372  INH372      0.0260
      2  C2        17.3960   17.6920   22.7230 C.ar  372  INH372      0.0310
      3  C3        18.2960   18.0830   21.7050 C.ar  372  INH372      0.0390
      4  C4        18.0010   17.8100   20.3300 C.ar  372  INH372      0.1370
      5  N2        18.9040   18.2090   19.3420 N.pl3 372  INH372     -0.0500
      6  C5        18.6560   17.9720   18.0740 C.3   372  INH372      0.7550
      7  N3        19.5280   18.3510   17.0560 N.3   372  INH372     -0.3870
      8  N4        17.4540   17.2990   17.6380 N.am  372  INH372     -0.3120
      9  C6        16.4670   16.8520   18.5940 C.2   372  INH372      0.2560
     10  O1        15.4510   16.2800   18.1810 O.2   372  INH372     -0.2670
     11  C7        16.7650   17.1300   20.0060 C.ar  372  INH372      0.0670
     12  C8        15.8680   16.7400   21.0500 C.ar  372  INH372      0.0480
     13  H5        20.4070   18.8360   17.2840 H     372  INH372      0.1530
     14  H6        19.2940   18.1460   16.0740 H     372  INH372      0.1530
     15  H7        17.3030   17.1400   16.6620 H     372  INH372      0.1660
     16  H9        19.7720   18.6940   19.6110 H     372  INH372      0.2710
     17  N1        15.2420   16.6130   23.4880 N.pl3 372  INH372     -0.3990
     18  H2        14.3410   17.0990   23.5990 H     372  INH372      0.1560
     19  H1        15.4970   15.8470   24.1270 H     372  INH372      0.1560
@<TRIPOS>BOND
     1    14     7    1
     2    15     8    1
     3     7    13    1
     4     7     6    1
     5     8     6    1
     6     8     9   am
     7     6     5    1
     8    10     9    2
     9     9    11    1
    10     5    16    1
    11     5     4    1
    12    11     4   ar
    13    11    12   ar
    14     4     3   ar
    15    12     1   ar
    16     3     2   ar
    17     1     2   ar
    18     1    17    1
    19    17    18    1
    20    17    19    1
