@<TRIPOS>MOLECULE
./ligand/2qvu_lig.pdb
 30 30 0 0 0
SMALL
GASTEIGER

@<TRIPOS>ATOM
      1  C1        39.5810  -27.0790   27.5990 C.3   1333  INH1333     0.1145
      2  C2        40.2270  -25.9380   28.3810 C.3   1333  INH1333     0.1399
      3  C3        40.7120  -28.0920   27.4350 C.3   1333  INH1333     0.1143
      4  C4        41.6980  -26.0460   27.9760 C.3   1333  INH1333     0.2330
      5  C5        40.8930  -28.5180   26.0000 C.3   1333  INH1333     0.0880
      6  C6        42.6650  -25.4630   28.9990 C.3   1333  INH1333     0.1013
      7  O1        44.3930  -25.7220   26.6530 O.3   1333  INH1333    -0.1145
      8  O2        43.3290  -23.4340   26.8590 O.3   1333  INH1333    -0.1145
      9  O3        42.9120  -31.6740   25.1990 O.3   1333  INH1333    -0.1145
     10  O4        40.5310  -31.1180   24.5620 O.3   1333  INH1333    -0.1145
     11  O5        43.1490  -24.7370   24.6920 O.2   1333  INH1333    -0.2223
     12  O6        42.4530  -29.8410   23.5160 O.2   1333  INH1333    -0.2224
     13  O7        41.9260  -27.4360   27.8980 O.3   1333  INH1333    -0.3359
     14  O8        38.4990  -27.6390   28.3340 O.3   1333  INH1333    -0.3864
     15  O9        39.6830  -24.6880   28.0120 O.3   1333  INH1333    -0.3837
     16  O10       42.4820  -24.0640   29.1570 O.3   1333  INH1333    -0.3896
     17  O11       41.8380  -25.4610   26.6590 O.3   1333  INH1333    -0.2456
     18  O12       41.9020  -29.5390   25.9670 O.3   1333  INH1333    -0.2809
     19  P1        43.2660  -24.8050   26.2050 P.3   1333  INH1333     0.5344
     20  P2        41.9480  -30.5970   24.7330 P.3   1333  INH1333     0.5320
     21  H1        39.1590  -26.7560   26.6360 H     1333  INH1333     0.0648
     22  H2        40.0670  -26.0080   29.4670 H     1333  INH1333     0.0675
     23  H3        40.4790  -29.0000   28.0100 H     1333  INH1333     0.0647
     24  H4        41.2070  -27.6590   25.3890 H     1333  INH1333     0.0592
     25  H5        39.9460  -28.9030   25.5930 H     1333  INH1333     0.0592
     26  H6        42.4920  -25.9540   29.9680 H     1333  INH1333     0.0612
     27  H7        43.6900  -25.6380   28.6420 H     1333  INH1333     0.0612
     28  H8        38.7610  -27.7640   29.2390 H     1333  INH1333     0.2100
     29  H9        39.5610  -24.1540   28.7880 H     1333  INH1333     0.2101
     30  H10       41.7130  -23.7880   28.6720 H     1333  INH1333     0.2096
@<TRIPOS>BOND
     1    12    20    2
     2    10    20    1
     3    11    19    2
     4    20     9    1
     5    20    18    1
     6    24     5    1
     7    25     5    1
     8    18     5    1
     9     5     3    1
    10    19     7    1
    11    19    17    1
    12    19     8    1
    13    21     1    1
    14    17     4    1
    15     3     1    1
    16     3    13    1
    17     3    23    1
    18     1    14    1
    19     1     2    1
    20    13     4    1
    21     4     2    1
    22     4     6    1
    23    15     2    1
    24    15    29    1
    25    14    28    1
    26     2    22    1
    27    27     6    1
    28    30    16    1
    29     6    16    1
    30     6    26    1
