@<TRIPOS>MOLECULE
/tmp/ewbell/vina_2qvu_2qvu_lig/vina/vina2.pdbqt
 27 27 0 0 0
SMALL
GASTEIGER

@<TRIPOS>ATOM
      1  C1        43.9010  -25.8530   25.4000 C.3   1333  INH1333     0.1830
      2  C2        44.1950  -24.9860   26.6220 C.3   1333  INH1333     0.2140
      3  C3        42.5500  -25.3390   24.9070 C.3   1333  INH1333     0.1810
      4  C4        42.7950  -24.6160   27.1140 C.3   1333  INH1333     0.2250
      5  O7        42.0600  -24.4220   25.9260 O.3   1333  INH1333    -0.3400
      6  O11       42.2620  -25.7560   27.8290 O.3   1333  INH1333    -0.2540
      7  P1        40.7040  -25.7500   28.3290 P.3   1333  INH1333     0.3930
      8  O5        40.2430  -27.1680   28.0370 O.2   1333  INH1333    -0.6310
      9  O1        39.9330  -24.7180   27.5210 O.3   1333  INH1333    -0.3070
     10  H         39.9030  -23.8810   28.0100 H     1333  INH1333     0.2220
     11  O2        40.7380  -25.4290   29.8140 O.3   1333  INH1333    -0.3070
     12  H         41.3040  -26.0710   30.2710 H     1333  INH1333     0.2220
     13  C6        42.7450  -23.3240   27.9200 C.3   1333  INH1333     0.2360
     14  O10       43.2640  -23.5010   29.2290 O.3   1333  INH1333    -0.3950
     15  H10       42.9500  -22.8030   29.7920 H     1333  INH1333     0.2090
     16  O9        44.9110  -25.7060   27.6040 O.3   1333  INH1333    -0.3870
     17  H9        45.2330  -25.1050   28.2650 H     1333  INH1333     0.2100
     18  O8        44.9060  -25.6760   24.4080 O.3   1333  INH1333    -0.3900
     19  H8        45.1570  -24.7600   24.3710 H     1333  INH1333     0.2100
     20  C5        41.5510  -26.4520   24.7170 C.3   1333  INH1333     0.2150
     21  O12       42.2800  -27.6810   24.5870 O.3   1333  INH1333    -0.2940
     22  P2        41.6340  -29.0710   25.1310 P.3   1333  INH1333     0.3900
     23  O6        40.2230  -29.1550   24.5730 O.2   1333  INH1333    -0.6320
     24  O3        42.5500  -30.1510   24.5800 O.3   1333  INH1333    -0.3070
     25  H         42.8340  -29.9080   23.6850 H     1333  INH1333     0.2220
     26  O4        41.6690  -28.9950   26.6470 O.3   1333  INH1333    -0.3070
     27  H         41.4540  -29.8650   27.0200 H     1333  INH1333     0.2220
@<TRIPOS>BOND
     1    25    24    1
     2    19    18    1
     3    18     1    1
     4    23    22    2
     5    24    22    1
     6    21    20    1
     7    21    22    1
     8    20     3    1
     9     3     1    1
    10     3     5    1
    11    22    26    1
    12     1     2    1
    13     5     4    1
    14     2     4    1
    15     2    16    1
    16    26    27    1
    17     4     6    1
    18     4    13    1
    19     9    10    1
    20     9     7    1
    21    16    17    1
    22     6     7    1
    23    13    14    1
    24     8     7    2
    25     7    11    1
    26    14    15    1
    27    11    12    1
