@<TRIPOS>MOLECULE
/tmp/ewbell/vina_2qvu_2qvu_lig/vina/vina1.pdbqt
 27 27 0 0 0
SMALL
GASTEIGER

@<TRIPOS>ATOM
      1  C1        39.5500  -27.6240   27.6210 C.3   1333  INH1333     0.1830
      2  C2        40.2650  -26.5190   28.3950 C.3   1333  INH1333     0.2140
      3  C3        40.6900  -28.4440   27.0210 C.3   1333  INH1333     0.1810
      4  C4        41.5810  -26.3730   27.6280 C.3   1333  INH1333     0.2250
      5  O7        41.9140  -27.6960   27.2710 O.3   1333  INH1333    -0.3400
      6  O11       41.3110  -25.6050   26.4300 O.3   1333  INH1333    -0.2540
      7  P1        42.5270  -25.2580   25.3930 P.3   1333  INH1333     0.3930
      8  O5        41.7970  -24.7110   24.1770 O.2   1333  INH1333    -0.6310
      9  O1        43.2850  -26.5380   25.0780 O.3   1333  INH1333    -0.3070
     10  H         44.2210  -26.3310   24.9260 H     1333  INH1333     0.2220
     11  O2        43.3910  -24.2180   26.0860 O.3   1333  INH1333    -0.3070
     12  H         43.8510  -23.6830   25.4190 H     1333  INH1333     0.2220
     13  C6        42.7220  -25.8040   28.4620 C.3   1333  INH1333     0.2360
     14  O10       42.3650  -24.5720   29.0700 O.3   1333  INH1333    -0.3950
     15  H10       41.4240  -24.4520   29.0150 H     1333  INH1333     0.2090
     16  O9        39.5250  -25.3170   28.3790 O.3   1333  INH1333    -0.3870
     17  H9        38.6010  -25.5120   28.4820 H     1333  INH1333     0.2100
     18  O8        38.7590  -28.4180   28.4980 O.3   1333  INH1333    -0.3900
     19  H8        38.1220  -28.9100   27.9940 H     1333  INH1333     0.2100
     20  C5        40.5260  -28.6480   25.5360 C.3   1333  INH1333     0.2150
     21  O12       41.7960  -29.0560   25.0050 O.3   1333  INH1333    -0.2940
     22  P2        42.0410  -30.6100   24.5890 P.3   1333  INH1333     0.3900
     23  O6        42.3130  -30.6340   23.0950 O.2   1333  INH1333    -0.6320
     24  O3        43.2450  -31.0320   25.4140 O.3   1333  INH1333    -0.3070
     25  H         43.9170  -30.3330   25.3860 H     1333  INH1333     0.2220
     26  O4        40.7780  -31.3610   24.9750 O.3   1333  INH1333    -0.3070
     27  H         40.0450  -30.7320   25.0700 H     1333  INH1333     0.2220
@<TRIPOS>BOND
     1    23    22    2
     2     8     7    2
     3    22    26    1
     4    22    21    1
     5    22    24    1
     6    10     9    1
     7    26    27    1
     8    21    20    1
     9     9     7    1
    10    25    24    1
    11     7    11    1
    12     7     6    1
    13    12    11    1
    14    20     3    1
    15     6     4    1
    16     3     5    1
    17     3     1    1
    18     5     4    1
    19     1     2    1
    20     1    18    1
    21     4     2    1
    22     4    13    1
    23    19    18    1
    24    16     2    1
    25    16    17    1
    26    13    14    1
    27    15    14    1
