@<TRIPOS>MOLECULE
/tmp/ewbell/vina_2qvu_2qvu_lig/vina/vina5.pdbqt
 27 27 0 0 0
SMALL
GASTEIGER

@<TRIPOS>ATOM
      1  C1        43.7180  -25.0180   27.7910 C.3   1333  INH1333     0.1830
      2  C2        42.4330  -25.3670   28.5370 C.3   1333  INH1333     0.2140
      3  C3        43.2400  -24.6900   26.3780 C.3   1333  INH1333     0.1810
      4  C4        41.5290  -25.8900   27.4200 C.3   1333  INH1333     0.2250
      5  O7        41.8330  -25.0580   26.3220 O.3   1333  INH1333    -0.3400
      6  O11       41.9350  -27.2470   27.1210 O.3   1333  INH1333    -0.2540
      7  P1        41.1440  -28.1020   25.9720 P.3   1333  INH1333     0.3930
      8  O5        41.9670  -29.3740   25.8610 O.2   1333  INH1333    -0.6310
      9  O1        41.1450  -27.3030   24.6780 O.3   1333  INH1333    -0.3070
     10  H         41.9820  -27.4470   24.2090 H     1333  INH1333     0.2220
     11  O2        39.7440  -28.3430   26.5130 O.3   1333  INH1333    -0.3070
     12  H         39.0900  -28.0510   25.8580 H     1333  INH1333     0.2220
     13  C6        40.0400  -25.7590   27.7170 C.3   1333  INH1333     0.2360
     14  O10       39.6130  -24.4060   27.6700 O.3   1333  INH1333    -0.3950
     15  H10       40.3600  -23.8420   27.5100 H     1333  INH1333     0.2090
     16  O9        42.6600  -26.3560   29.5200 O.3   1333  INH1333    -0.3870
     17  H9        43.0300  -25.9520   30.2960 H     1333  INH1333     0.2100
     18  O8        44.3530  -23.8930   28.3870 O.3   1333  INH1333    -0.3900
     19  H8        43.7750  -23.5100   29.0370 H     1333  INH1333     0.2100
     20  C5        43.9980  -25.4600   25.3260 C.3   1333  INH1333     0.2150
     21  O12       45.2460  -25.8780   25.8980 O.3   1333  INH1333    -0.2940
     22  P2        46.6300  -25.1480   25.4540 P.3   1333  INH1333     0.3900
     23  O6        46.4370  -24.6560   24.0300 O.2   1333  INH1333    -0.6320
     24  O3        46.7910  -24.0130   26.4520 O.3   1333  INH1333    -0.3070
     25  H         47.3870  -24.2920   27.1640 H     1333  INH1333     0.2220
     26  O4        47.7240  -26.1930   25.5780 O.3   1333  INH1333    -0.3070
     27  H         47.4830  -26.9770   25.0600 H     1333  INH1333     0.2220
@<TRIPOS>BOND
     1    23    22    2
     2    10     9    1
     3     9     7    1
     4    27    26    1
     5    20    21    1
     6    20     3    1
     7    22    26    1
     8    22    21    1
     9    22    24    1
    10    12    11    1
    11     8     7    2
    12     7    11    1
    13     7     6    1
    14     5     3    1
    15     5     4    1
    16     3     1    1
    17    24    25    1
    18     6     4    1
    19     4    13    1
    20     4     2    1
    21    15    14    1
    22    14    13    1
    23     1    18    1
    24     1     2    1
    25    18    19    1
    26     2    16    1
    27    16    17    1
