@<TRIPOS>MOLECULE
/tmp/ewbell/vina_2qvu_2qvu_lig/vina/vina3.pdbqt
 27 27 0 0 0
SMALL
GASTEIGER

@<TRIPOS>ATOM
      1  C1        44.7750  -25.3520   25.0620 C.3   1333  INH1333     0.1830
      2  C2        43.3310  -25.3630   25.5580 C.3   1333  INH1333     0.2140
      3  C3        45.5990  -25.4810   26.3400 C.3   1333  INH1333     0.1810
      4  C4        43.4600  -24.7920   26.9720 C.3   1333  INH1333     0.2250
      5  O7        44.6680  -25.3420   27.4500 O.3   1333  INH1333    -0.3400
      6  O11       43.5970  -23.3560   26.8570 O.3   1333  INH1333    -0.2540
      7  P1        43.8870  -22.4550   28.1910 P.3   1333  INH1333     0.3930
      8  O5        44.5410  -21.2050   27.6270 O.2   1333  INH1333    -0.6310
      9  O1        44.8210  -23.2260   29.1110 O.3   1333  INH1333    -0.3070
     10  H         44.8790  -24.1470   28.8150 H     1333  INH1333     0.2220
     11  O2        42.5320  -22.1840   28.8220 O.3   1333  INH1333    -0.3070
     12  H         42.4810  -21.2540   29.0940 H     1333  INH1333     0.2220
     13  C6        42.3390  -25.2160   27.9130 C.3   1333  INH1333     0.2360
     14  O10       41.1190  -24.5600   27.6060 O.3   1333  INH1333    -0.3950
     15  H10       41.1440  -23.6710   27.9380 H     1333  INH1333     0.2090
     16  O9        42.5020  -24.5540   24.7510 O.3   1333  INH1333    -0.3870
     17  H9        41.6100  -24.5910   25.0750 H     1333  INH1333     0.2100
     18  O8        45.0120  -26.4510   24.1900 O.3   1333  INH1333    -0.3900
     19  H8        44.8350  -26.1900   23.2940 H     1333  INH1333     0.2100
     20  C5        46.6600  -24.4140   26.4450 C.3   1333  INH1333     0.2150
     21  O12       47.8890  -25.0510   26.8250 O.3   1333  INH1333    -0.2940
     22  P2        48.1490  -25.4570   28.3790 P.3   1333  INH1333     0.3900
     23  O6        47.9980  -26.9660   28.4760 O.2   1333  INH1333    -0.6320
     24  O3        49.5670  -24.9880   28.6560 O.3   1333  INH1333    -0.3070
     25  H         50.0190  -25.6380   29.2160 H     1333  INH1333     0.2220
     26  O4        47.1150  -24.7030   29.1970 O.3   1333  INH1333    -0.3070
     27  H         46.7380  -23.9870   28.6610 H     1333  INH1333     0.2220
@<TRIPOS>BOND
     1    19    18    1
     2    18     1    1
     3    16    17    1
     4    16     2    1
     5     1     2    1
     6     1     3    1
     7     2     4    1
     8     3    20    1
     9     3     5    1
    10    20    21    1
    11    21    22    1
    12     6     4    1
    13     6     7    1
    14     4     5    1
    15     4    13    1
    16    14    13    1
    17    14    15    1
    18     8     7    2
    19     7    11    1
    20     7     9    1
    21    22    23    2
    22    22    24    1
    23    22    26    1
    24    24    25    1
    25    27    26    1
    26    10     9    1
    27    11    12    1
