@<TRIPOS>MOLECULE
/tmp/ewbell/vina_2qvu_2qvu_lig/vina/vina4.pdbqt
 27 27 0 0 0
SMALL
GASTEIGER

@<TRIPOS>ATOM
      1  C1        42.3230  -24.9320   27.5740 C.3   1333  INH1333     0.1830
      2  C2        41.6320  -25.9040   28.5270 C.3   1333  INH1333     0.2140
      3  C3        41.3970  -24.8950   26.3600 C.3   1333  INH1333     0.1810
      4  C4        40.8590  -26.8160   27.5730 C.3   1333  INH1333     0.2250
      5  O7        40.4060  -25.9420   26.5620 O.3   1333  INH1333    -0.3400
      6  O11       41.7990  -27.7600   27.0070 O.3   1333  INH1333    -0.2540
      7  P1        41.3740  -28.6530   25.7030 P.3   1333  INH1333     0.3930
      8  O5        41.9850  -30.0110   26.0010 O.2   1333  INH1333    -0.6310
      9  O1        41.9700  -28.0160   24.4560 O.3   1333  INH1333    -0.3070
     10  H         41.6070  -28.4490   23.6680 H     1333  INH1333     0.2220
     11  O2        39.8550  -28.6750   25.6830 O.3   1333  INH1333    -0.3070
     12  H         39.5140  -28.2700   26.4960 H     1333  INH1333     0.2220
     13  C6        39.6430  -27.4820   28.2040 C.3   1333  INH1333     0.2360
     14  O10       38.4570  -27.2120   27.4720 O.3   1333  INH1333    -0.3950
     15  H10       37.9900  -26.4930   27.8800 H     1333  INH1333     0.2090
     16  O9        42.5710  -26.6340   29.2890 O.3   1333  INH1333    -0.3870
     17  H9        42.3190  -27.5490   29.3100 H     1333  INH1333     0.2100
     18  O8        42.4360  -23.6440   28.1680 O.3   1333  INH1333    -0.3900
     19  H8        43.2200  -23.2140   27.8460 H     1333  INH1333     0.2100
     20  C5        42.1350  -25.1500   25.0710 C.3   1333  INH1333     0.2150
     21  O12       43.4310  -24.5420   25.1770 O.3   1333  INH1333    -0.2940
     22  P2        44.7620  -25.3920   24.7870 P.3   1333  INH1333     0.3900
     23  O6        44.2940  -26.6760   24.1240 O.2   1333  INH1333    -0.6320
     24  O3        45.5220  -24.4820   23.8380 O.3   1333  INH1333    -0.3070
     25  H         44.9630  -24.2730   23.0730 H     1333  INH1333     0.2220
     26  O4        45.5110  -25.6340   26.0870 O.3   1333  INH1333    -0.3070
     27  H         46.4290  -25.3340   25.9920 H     1333  INH1333     0.2220
@<TRIPOS>BOND
     1    25    24    1
     2    10     9    1
     3    24    22    1
     4    23    22    2
     5     9     7    1
     6    22    21    1
     7    22    26    1
     8    20    21    1
     9    20     3    1
    10    11     7    1
    11    11    12    1
    12     7     8    2
    13     7     6    1
    14    27    26    1
    15     3     5    1
    16     3     1    1
    17     5     4    1
    18     6     4    1
    19    14    15    1
    20    14    13    1
    21     4    13    1
    22     4     2    1
    23     1    18    1
    24     1     2    1
    25    19    18    1
    26     2    16    1
    27    16    17    1
