@<TRIPOS>MOLECULE
./ligand/2r3d_lig.pdb
 9 8 0 0 0
SMALL
GASTEIGER

@<TRIPOS>ATOM
      1  C1         9.3360   24.9460   42.3210 C.2   261  INH261      0.2074
      2  C2         8.9660   23.5400   42.7960 C.3   261  INH261      0.0119
      3  N1         8.5420   25.5030   41.4200 N.am  261  INH261     -0.3295
      4  O1        10.3370   25.5230   42.7670 O.2   261  INH261     -0.2763
      5  H1         8.8770   22.8710   41.9280 H     261  INH261      0.0322
      6  H2         9.7490   23.1630   43.4710 H     261  INH261      0.0322
      7  H3         8.0060   23.5750   43.3310 H     261  INH261      0.0322
      8  H4         7.7790   24.9110   41.1620 H     261  INH261      0.1449
      9  H5         8.6890   26.4160   41.0390 H     261  INH261      0.1449
@<TRIPOS>BOND
     1     1     4    2
     2     1     3   am
     3     1     2    1
     4     2     7    1
     5     2     6    1
     6     2     5    1
     7     3     9    1
     8     3     8    1
