@<TRIPOS>MOLECULE
/tmp/ewbell/vina_2r3d_2r3d_lig/vina/vina4.pdbqt
 6 5 0 0 0
SMALL
GASTEIGER

@<TRIPOS>ATOM
      1  C1         4.0700   29.1540   54.6100 C.2   261  INH261      0.2110
      2  C2         3.6770   28.5110   53.2800 C.3   261  INH261      0.1170
      3  N1         5.3410   29.4930   54.7600 N.am  261  INH261     -0.3700
      4  O1         3.2260   29.3420   55.4980 O.2   261  INH261     -0.2740
      5  H4         5.8930   29.2770   53.9560 H     261  INH261      0.1590
      6  H5         5.7080   29.9190   55.5880 H     261  INH261      0.1590
@<TRIPOS>BOND
     1     2     1    1
     2     5     3    1
     3     1     3   am
     4     1     4    2
     5     3     6    1
