@<TRIPOS>MOLECULE
/tmp/ewbell/vina_2r3d_2r3d_lig/vina/vina1.pdbqt
 6 5 0 0 0
SMALL
GASTEIGER

@<TRIPOS>ATOM
      1  C1         9.4760   24.8930   42.2140 C.2   261  INH261      0.2110
      2  C2         8.9410   23.7030   43.0130 C.3   261  INH261      0.1170
      3  N1         8.7950   25.2450   41.1340 N.am  261  INH261     -0.3700
      4  O1        10.5010   25.4880   42.5720 O.2   261  INH261     -0.2740
      5  H4         7.9930   24.6670   40.9800 H     261  INH261      0.1590
      6  H5         9.0530   26.0050   40.5380 H     261  INH261      0.1590
@<TRIPOS>BOND
     1     6     3    1
     2     5     3    1
     3     3     1   am
     4     1     4    2
     5     1     2    1
