@<TRIPOS>MOLECULE
/tmp/ewbell/vina_2r3d_2r3d_lig/vina/vina2.pdbqt
 6 5 0 0 0
SMALL
GASTEIGER

@<TRIPOS>ATOM
      1  C1        10.8260   20.6800   47.9520 C.2   261  INH261      0.2110
      2  C2         9.3940   21.1800   48.1480 C.3   261  INH261      0.1170
      3  N1        11.0300   19.8110   46.9740 N.am  261  INH261     -0.3700
      4  O1        11.7420   21.0790   48.6840 O.2   261  INH261     -0.2740
      5  H4        10.1930   19.5900   46.4760 H     261  INH261      0.1590
      6  H5        11.9240   19.4190   46.7580 H     261  INH261      0.1590
@<TRIPOS>BOND
     1     5     3    1
     2     6     3    1
     3     3     1   am
     4     1     2    1
     5     1     4    2
