@<TRIPOS>MOLECULE
/tmp/ewbell/vina_2r3d_2r3d_lig/vina/vina5.pdbqt
 6 5 0 0 0
SMALL
GASTEIGER

@<TRIPOS>ATOM
      1  C1         2.2010   29.2630   41.6480 C.2   261  INH261      0.2110
      2  C2         2.6130   30.7280   41.7950 C.3   261  INH261      0.1170
      3  N1         2.6900   28.6030   40.6090 N.am  261  INH261     -0.3700
      4  O1         1.4420   28.7320   42.4700 O.2   261  INH261     -0.2740
      5  H4         3.2860   29.1700   40.0400 H     261  INH261      0.1590
      6  H5         2.4870   27.6440   40.4150 H     261  INH261      0.1590
@<TRIPOS>BOND
     1     5     3    1
     2     6     3    1
     3     3     1   am
     4     1     2    1
     5     1     4    2
