@<TRIPOS>MOLECULE
/tmp/ewbell/vina_2r3d_2r3d_lig/vina/vina3.pdbqt
 6 5 0 0 0
SMALL
GASTEIGER

@<TRIPOS>ATOM
      1  C1        10.6520   22.3330   44.6280 C.2   261  INH261      0.2110
      2  C2        10.1830   21.9050   43.2370 C.3   261  INH261      0.1170
      3  N1        10.6680   21.4020   45.5690 N.am  261  INH261     -0.3700
      4  O1        10.9960   23.5020   44.8490 O.2   261  INH261     -0.2740
      5  H4        10.3630   20.5120   45.2330 H     261  INH261      0.1590
      6  H5        10.9550   21.5710   46.5120 H     261  INH261      0.1590
@<TRIPOS>BOND
     1     2     1    1
     2     1     4    2
     3     1     3   am
     4     5     3    1
     5     3     6    1
