@<TRIPOS>MOLECULE
./ligand/2dm5_lig.pdb
 28 27 0 0 0
SMALL
GASTEIGER

@<TRIPOS>ATOM
      1  O1        51.7250   21.0660   42.4190 O.3   160  INH160     -0.3950
      2  C1        52.4470   22.0530   41.6790 C.3   160  INH160      0.0442
      3  C2        51.9890   22.0570   40.2190 C.3   160  INH160     -0.0297
      4  C3        51.1600   23.3020   39.9040 C.3   160  INH160     -0.0510
      5  C4        49.8760   23.3260   40.7370 C.3   160  INH160     -0.0530
      6  C5        49.3680   24.7640   40.8480 C.3   160  INH160     -0.0530
      7  C6        47.8580   24.8420   40.6260 C.3   160  INH160     -0.0510
      8  C7        47.2510   25.8980   41.5520 C.3   160  INH160     -0.0297
      9  C8        46.2070   26.7340   40.8090 C.3   160  INH160      0.0442
     10  O2        46.0730   28.0000   41.4580 O.3   160  INH160     -0.3950
     11  H1        52.0170   21.0720   43.3230 H     160  INH160      0.2094
     12  H2        53.5220   21.8250   41.7220 H     160  INH160      0.0557
     13  H3        52.2640   23.0440   42.1200 H     160  INH160      0.0557
     14  H4        51.3770   21.1620   40.0320 H     160  INH160      0.0287
     15  H5        52.8740   22.0400   39.5650 H     160  INH160      0.0287
     16  H6        50.8970   23.2990   38.8360 H     160  INH160      0.0266
     17  H7        51.7550   24.1990   40.1330 H     160  INH160      0.0266
     18  H8        50.0840   22.9320   41.7430 H     160  INH160      0.0265
     19  H9        49.1110   22.7030   40.2500 H     160  INH160      0.0265
     20  H10       49.8730   25.3810   40.0900 H     160  INH160      0.0265
     21  H11       49.6020   25.1500   41.8510 H     160  INH160      0.0265
     22  H12       47.4060   23.8630   40.8430 H     160  INH160      0.0266
     23  H13       47.6570   25.1150   39.5800 H     160  INH160      0.0266
     24  H14       48.0500   26.5600   41.9170 H     160  INH160      0.0287
     25  H15       46.7710   25.3970   42.4050 H     160  INH160      0.0287
     26  H16       45.2400   26.2100   40.8200 H     160  INH160      0.0557
     27  H17       46.5300   26.8860   39.7680 H     160  INH160      0.0557
     28  H18       45.4260   28.5230   41.0000 H     160  INH160      0.2094
@<TRIPOS>BOND
     1     1    11    1
     2     1     2    1
     3     2    13    1
     4     2    12    1
     5     2     3    1
     6     3    15    1
     7     3    14    1
     8     3     4    1
     9     4    17    1
    10     4    16    1
    11     4     5    1
    12     5    19    1
    13     5    18    1
    14     5     6    1
    15     6    21    1
    16     6    20    1
    17     6     7    1
    18     7    23    1
    19     7    22    1
    20     7     8    1
    21     8    25    1
    22     8    24    1
    23     8     9    1
    24     9    27    1
    25     9    26    1
    26     9    10    1
    27    10    28    1
