@<TRIPOS>MOLECULE
/tmp/ewbell/vina_2dm5_2dm5_lig/vina/vina5.pdbqt
 12 11 0 0 0
SMALL
GASTEIGER

@<TRIPOS>ATOM
      1  C4        50.0990   23.5590   40.4270 C.3   160  INH160      0.0000
      2  C3        51.6290   23.5580   40.4690 C.3   160  INH160      0.0020
      3  C2        52.2080   22.9290   39.2020 C.3   160  INH160      0.0260
      4  C1        53.0020   23.9530   38.3890 C.3   160  INH160      0.1640
      5  O1        53.0660   23.5520   37.0190 O.3   160  INH160     -0.4010
      6  H1        52.6600   22.6990   36.9190 H     160  INH160      0.2090
      7  C5        49.6040   24.9300   39.9640 C.3   160  INH160      0.0000
      8  C6        48.1570   24.8660   39.4760 C.3   160  INH160      0.0020
      9  C7        47.3350   25.9690   40.1460 C.3   160  INH160      0.0260
     10  C8        47.4040   25.8460   41.6700 C.3   160  INH160      0.1640
     11  O2        46.2170   26.4020   42.2380 O.3   160  INH160     -0.4010
     12  H18       45.8560   25.7960   42.8740 H     160  INH160      0.2090
@<TRIPOS>BOND
     1     6     5    1
     2     5     4    1
     3     4     3    1
     4     3     2    1
     5     8     7    1
     6     8     9    1
     7     7     1    1
     8     9    10    1
     9     1     2    1
    10    10    11    1
    11    11    12    1
