@<TRIPOS>MOLECULE
/tmp/ewbell/vina_2dm5_2dm5_lig/vina/vina2.pdbqt
 12 11 0 0 0
SMALL
GASTEIGER

@<TRIPOS>ATOM
      1  C4        48.3740   25.8170   39.7310 C.3   160  INH160      0.0000
      2  C3        47.5020   24.5600   39.6920 C.3   160  INH160      0.0020
      3  C2        48.2620   23.3550   40.2450 C.3   160  INH160      0.0260
      4  C1        49.7430   23.6800   40.4460 C.3   160  INH160      0.1640
      5  O1        50.1010   23.5180   41.8200 O.3   160  INH160     -0.4010
      6  H1        50.2820   22.6020   41.9940 H     160  INH160      0.2090
      7  C5        47.6530   26.9120   40.5190 C.3   160  INH160      0.0000
      8  C6        47.4600   26.5120   41.9820 C.3   160  INH160      0.0020
      9  C7        46.0570   26.9100   42.4470 C.3   160  INH160      0.0260
     10  C8        45.1640   27.2420   41.2500 C.3   160  INH160      0.1640
     11  O2        44.6390   28.5600   41.4090 O.3   160  INH160     -0.4010
     12  H18       44.1750   28.6180   42.2360 H     160  INH160      0.2090
@<TRIPOS>BOND
     1     2     1    1
     2     2     3    1
     3     1     7    1
     4     3     4    1
     5     4     5    1
     6     7     8    1
     7    10    11    1
     8    10     9    1
     9    11    12    1
    10     5     6    1
    11     8     9    1
