@<TRIPOS>MOLECULE
/tmp/ewbell/vina_2dm5_2dm5_lig/vina/vina1.pdbqt
 12 11 0 0 0
SMALL
GASTEIGER

@<TRIPOS>ATOM
      1  C4        47.5720   26.1630   41.8800 C.3   160  INH160      0.0000
      2  C3        46.4350   27.0640   42.3670 C.3   160  INH160      0.0020
      3  C2        45.2990   27.1060   41.3460 C.3   160  INH160      0.0260
      4  C1        44.8130   28.5390   41.1180 C.3   160  INH160      0.1640
      5  O1        45.8960   29.3630   40.6790 O.3   160  INH160     -0.4010
      6  H1        45.5620   30.0540   40.1200 H     160  INH160      0.2090
      7  C5        47.9270   26.5270   40.4370 C.3   160  INH160      0.0000
      8  C6        48.4320   25.3100   39.6620 C.3   160  INH160      0.0020
      9  C7        47.3210   24.2630   39.5610 C.3   160  INH160      0.0260
     10  C8        47.8090   22.9030   40.0650 C.3   160  INH160      0.1640
     11  O2        48.9480   23.0980   40.9040 O.3   160  INH160     -0.4010
     12  H18       49.7400   22.9210   40.4090 H     160  INH160      0.2090
@<TRIPOS>BOND
     1     9     8    1
     2     9    10    1
     3     8     7    1
     4    10    11    1
     5     6     5    1
     6    12    11    1
     7     7     1    1
     8     5     4    1
     9     4     3    1
    10     3     2    1
    11     1     2    1
