@<TRIPOS>MOLECULE
/tmp/ewbell/vina_2dm5_2dm5_lig/vina/vina4.pdbqt
 12 11 0 0 0
SMALL
GASTEIGER

@<TRIPOS>ATOM
      1  C4        49.6870   25.5510   39.0510 C.3   160  INH160      0.0000
      2  C3        48.3570   24.9120   39.4570 C.3   160  INH160      0.0020
      3  C2        47.4710   25.9190   40.1900 C.3   160  INH160      0.0260
      4  C1        48.2400   26.6140   41.3160 C.3   160  INH160      0.1640
      5  O1        48.5360   25.6830   42.3590 O.3   160  INH160     -0.4010
      6  H1        47.7670   25.5610   42.9030 H     160  INH160      0.2090
      7  C5        50.8410   24.6620   39.5140 C.3   160  INH160      0.0000
      8  C6        50.3360   23.4640   40.3180 C.3   160  INH160      0.0020
      9  C7        51.2580   23.2170   41.5140 C.3   160  INH160      0.0260
     10  C8        51.6370   21.7370   41.6090 C.3   160  INH160      0.1640
     11  O2        51.6610   21.3480   42.9830 O.3   160  INH160     -0.4010
     12  H18       50.9230   21.7400   43.4360 H     160  INH160      0.2090
@<TRIPOS>BOND
     1     1     2    1
     2     1     7    1
     3     2     3    1
     4     7     8    1
     5     3     4    1
     6     8     9    1
     7     4     5    1
     8     9    10    1
     9    10    11    1
    10     5     6    1
    11    11    12    1
