@<TRIPOS>MOLECULE
/tmp/ewbell/vina_2dm5_2dm5_lig/vina/vina3.pdbqt
 12 11 0 0 0
SMALL
GASTEIGER

@<TRIPOS>ATOM
      1  C4        49.4890   25.5970   39.1670 C.3   160  INH160      0.0000
      2  C3        50.7160   24.7470   39.5060 C.3   160  INH160      0.0020
      3  C2        50.3180   23.5190   40.3230 C.3   160  INH160      0.0260
      4  C1        51.3350   23.2380   41.4310 C.3   160  INH160      0.1640
      5  O1        50.6910   23.2490   42.7070 O.3   160  INH160     -0.4010
      6  H1        50.0060   22.5910   42.7220 H     160  INH160      0.2090
      7  C5        48.2230   24.7580   39.3500 C.3   160  INH160      0.0000
      8  C6        47.1420   25.5360   40.1000 C.3   160  INH160      0.0020
      9  C7        47.7680   26.7350   40.8150 C.3   160  INH160      0.0260
     10  C8        47.7440   26.5350   42.3320 C.3   160  INH160      0.1640
     11  O2        48.8440   25.7080   42.7130 O.3   160  INH160     -0.4010
     12  H18       48.5450   25.0480   43.3270 H     160  INH160      0.2090
@<TRIPOS>BOND
     1     1     7    1
     2     1     2    1
     3     7     8    1
     4     2     3    1
     5     8     9    1
     6     3     4    1
     7     9    10    1
     8     4     5    1
     9    10    11    1
    10     5     6    1
    11    11    12    1
