@<TRIPOS>MOLECULE
./ligand/2qmj_lig.pdb
 88 91 0 0 0
SMALL
GASTEIGER

@<TRIPOS>ATOM
      1  C1       -19.6710   -5.9900  -10.6110 C.3   869  INH869      0.0261
      2  C2       -20.7300   -5.6830  -11.6900 C.3   869  INH869      0.1297
      3  C3       -21.5600   -6.9360  -11.9710 C.3   869  INH869      0.1163
      4  C4       -20.6670   -7.9640  -12.6390 C.3   869  INH869      0.1070
      5  C5       -19.3470   -8.1050  -11.9110 C.2   869  INH869     -0.0124
      6  C6       -18.5890   -9.3680  -12.1800 C.3   869  INH869      0.0679
      7  C7       -18.8330   -7.1680  -11.0990 C.2   869  INH869     -0.0300
      8  O1       -21.5980   -4.6430  -11.2610 O.3   869  INH869     -0.3832
      9  O2       -22.7950   -6.7250  -12.7430 O.3   869  INH869     -0.3861
     10  O3       -21.3410   -9.2220  -12.6550 O.3   869  INH869     -0.3848
     11  O4       -17.8570   -9.0520  -13.3800 O.3   869  INH869     -0.3906
     12  C8       -18.2170   -6.7430   -5.3860 C.3   869  INH869      0.1886
     13  C9       -17.8400   -5.5560   -6.2710 C.3   869  INH869      0.1370
     14  C10      -18.9740   -5.2480   -7.2620 C.3   869  INH869      0.1304
     15  C11      -19.2400   -6.4670   -8.1460 C.3   869  INH869      0.0337
     16  C12      -19.5940   -7.6510   -7.2210 C.3   869  INH869      0.1039
     17  C13      -19.7630   -8.9570   -7.9900 C.3   869  INH869     -0.0332
     18  N1       -20.2000   -6.1770   -9.2330 N.4   869  INH869      0.2399
     19  O5       -17.6240   -4.4180   -5.4390 O.3   869  INH869     -0.3840
     20  O6       -18.6180   -4.1570   -8.1040 O.3   869  INH869     -0.3834
     21  O7       -18.5410   -7.8430   -6.2420 O.3   869  INH869     -0.3401
     22  C14      -21.0570   -7.7380   -0.9580 C.3   869  INH869      0.1884
     23  C15      -19.5340   -7.7390   -1.0400 C.3   869  INH869      0.1341
     24  C16      -19.0200   -6.9610   -2.2550 C.3   869  INH869      0.1144
     25  C17      -19.7220   -7.3380   -3.5600 C.3   869  INH869      0.1184
     26  C18      -21.2420   -7.3380   -3.3630 C.3   869  INH869      0.1134
     27  C19      -21.9950   -7.8540   -4.5850 C.3   869  INH869      0.0730
     28  O8       -19.0400   -7.0610    0.1090 O.3   869  INH869     -0.3841
     29  O9       -17.6040   -7.1280   -2.4050 O.3   869  INH869     -0.3864
     30  O10      -19.3450   -6.3910   -4.5600 O.3   869  INH869     -0.3401
     31  O11      -21.5930   -8.1540   -2.2260 O.3   869  INH869     -0.3405
     32  O12      -23.3970   -7.9360   -4.2880 O.3   869  INH869     -0.3924
     33  C20      -24.4360   -4.5400    1.8350 C.3   869  INH869      0.1854
     34  C21      -22.9600   -4.6230    2.3060 C.3   869  INH869      0.1339
     35  C22      -21.9930   -5.0600    1.1990 C.3   869  INH869      0.1144
     36  C23      -22.4870   -6.2690    0.3980 C.3   869  INH869      0.1184
     37  C24      -23.9070   -5.9410   -0.1210 C.3   869  INH869      0.1134
     38  C25      -24.5410   -7.0460   -0.9710 C.3   869  INH869      0.0730
     39  O13      -24.7250   -3.2780    1.2080 O.3   869  INH869     -0.3649
     40  O14      -22.4900   -3.3600    2.8190 O.3   869  INH869     -0.3841
     41  O15      -20.6790   -5.3120    1.7380 O.3   869  INH869     -0.3864
     42  O16      -21.5170   -6.4160   -0.6480 O.3   869  INH869     -0.3401
     43  O17      -24.8190   -5.6180    0.9550 O.3   869  INH869     -0.3407
     44  O18      -25.8490   -6.6220   -1.3960 O.3   869  INH869     -0.3924
     45  H1       -19.0060   -5.1150  -10.5600 H     869  INH869      0.0924
     46  H2       -20.2200   -5.3700  -12.6130 H     869  INH869      0.0681
     47  H3       -21.8690   -7.3410  -10.9960 H     869  INH869      0.0651
     48  H4       -20.4690   -7.6450  -13.6730 H     869  INH869      0.0668
     49  H5       -19.2730  -10.2130  -12.3440 H     869  INH869      0.0605
     50  H6       -17.9060   -9.6050  -11.3510 H     869  INH869      0.0605
     51  H7       -17.7950   -7.2500  -10.7810 H     869  INH869      0.0630
     52  H8       -21.0900   -3.8600  -11.0840 H     869  INH869      0.2102
     53  H9       -23.2380   -7.5570  -12.8650 H     869  INH869      0.2100
     54  H10      -20.7880   -9.8720  -13.0720 H     869  INH869      0.2103
     55  H11      -18.4670   -8.8510  -14.0790 H     869  INH869      0.2098
     56  H12      -17.3670   -7.0140   -4.7430 H     869  INH869      0.0938
     57  H13      -16.9210   -5.7900   -6.8280 H     869  INH869      0.0672
     58  H14      -19.8850   -4.9950   -6.7000 H     869  INH869      0.0679
     59  H15      -18.2940   -6.7270   -8.6430 H     869  INH869      0.0903
     60  H16      -20.5360   -7.4190   -6.7030 H     869  INH869      0.0652
     61  H17      -20.0140   -9.7660   -7.2880 H     869  INH869      0.0257
     62  H18      -18.8250   -9.2000   -8.5100 H     869  INH869      0.0257
     63  H19      -20.5730   -8.8470   -8.7260 H     869  INH869      0.0257
     64  H20      -20.7220   -5.2700   -8.9650 H     869  INH869      0.2025
     65  H21      -18.4200   -4.2200   -4.9600 H     869  INH869      0.2101
     66  H22      -18.4480   -3.3880   -7.5720 H     869  INH869      0.2102
     67  H23      -21.3850   -8.4340   -0.1720 H     869  INH869      0.0938
     68  H24      -19.1650   -8.7750   -1.0740 H     869  INH869      0.0671
     69  H25      -19.2190   -5.8950   -2.0680 H     869  INH869      0.0648
     70  H26      -19.4020   -8.3430   -3.8710 H     869  INH869      0.0651
     71  H27      -21.5610   -6.3030   -3.1710 H     869  INH869      0.0647
     72  H28      -21.6180   -8.8520   -4.8520 H     869  INH869      0.0584
     73  H29      -21.8390   -7.1650   -5.4290 H     869  INH869      0.0584
     74  H30      -19.3350   -7.5100    0.8930 H     869  INH869      0.2101
     75  H31      -17.1700   -6.8930   -1.5930 H     869  INH869      0.2100
     76  H32      -23.8640   -8.2570   -5.0500 H     869  INH869      0.2095
     77  H33      -25.0630   -4.6150    2.7360 H     869  INH869      0.0935
     78  H34      -22.9150   -5.3670    3.1150 H     869  INH869      0.0671
     79  H35      -21.9080   -4.2190    0.4950 H     869  INH869      0.0648
     80  H36      -22.5210   -7.1770    1.0180 H     869  INH869      0.0651
     81  H37      -23.8100   -5.0500   -0.7590 H     869  INH869      0.0647
     82  H38      -23.9120   -7.2390   -1.8520 H     869  INH869      0.0584
     83  H39      -24.6280   -7.9660   -0.3740 H     869  INH869      0.0584
     84  H40      -24.1960   -3.1850    0.4240 H     869  INH869      0.2126
     85  H41      -21.5860   -3.4480    3.0970 H     869  INH869      0.2101
     86  H42      -20.0960   -5.5810    1.0380 H     869  INH869      0.2100
     87  H43      -26.2470   -7.3040   -1.9240 H     869  INH869      0.2095
     88  H44      -20.8540   -6.9440   -9.2660 H     869  INH869      0.2025
@<TRIPOS>BOND
     1    55    11    1
     2    48     4    1
     3    11     6    1
     4    54    10    1
     5    53     9    1
     6     9     3    1
     7    10     4    1
     8     4     3    1
     9     4     5    1
    10    46     2    1
    11    49     6    1
    12     6     5    1
    13     6    50    1
    14     3     2    1
    15     3    47    1
    16     5     7    2
    17     2     8    1
    18     2     1    1
    19     8    52    1
    20     7    51    1
    21     7     1    1
    22     1    45    1
    23     1    18    1
    24    88    18    1
    25    18    64    1
    26    18    15    1
    27    63    17    1
    28    59    15    1
    29    62    17    1
    30    15    14    1
    31    15    16    1
    32    20    66    1
    33    20    14    1
    34    17    61    1
    35    17    16    1
    36    14    58    1
    37    14    13    1
    38    16    60    1
    39    16    21    1
    40    57    13    1
    41    13    19    1
    42    13    12    1
    43    21    12    1
    44    19    65    1
    45    73    27    1
    46    12    56    1
    47    12    30    1
    48    76    32    1
    49    72    27    1
    50    27    32    1
    51    27    26    1
    52    30    25    1
    53    70    25    1
    54    25    26    1
    55    25    24    1
    56    26    71    1
    57    26    31    1
    58    29    24    1
    59    29    75    1
    60    24    69    1
    61    24    23    1
    62    31    22    1
    63    87    44    1
    64    82    38    1
    65    44    38    1
    66    68    23    1
    67    23    22    1
    68    23    28    1
    69    38    83    1
    70    38    37    1
    71    22    42    1
    72    22    67    1
    73    81    37    1
    74    42    36    1
    75    37    36    1
    76    37    43    1
    77    28    74    1
    78    36    80    1
    79    36    35    1
    80    84    39    1
    81    79    35    1
    82    43    33    1
    83    86    41    1
    84    35    41    1
    85    35    34    1
    86    39    33    1
    87    33    34    1
    88    33    77    1
    89    34    40    1
    90    34    78    1
    91    40    85    1
