@<TRIPOS>MOLECULE
/tmp/ewbell/vina_2qmj_2qmj_lig/vina/vina2.pdbqt
 59 62 0 0 0
SMALL
GASTEIGER

@<TRIPOS>ATOM
      1  O10      -18.9720   -6.1830   -4.5390 O.3   869  INH869     -0.3480
      2  C8       -17.9550   -6.7370   -5.3980 C.3   869  INH869      0.2920
      3  C9       -17.4590   -5.6610   -6.3630 C.3   869  INH869      0.2040
      4  C10      -18.5890   -5.2330   -7.3130 C.3   869  INH869      0.1840
      5  C11      -19.0790   -6.4380   -8.1160 C.3   869  INH869      0.2460
      6  C12      -19.5510   -7.5120   -7.1130 C.3   869  INH869      0.1540
      7  C13      -19.9520   -8.8120   -7.8020 C.3   869  INH869      0.0420
      8  O7       -18.4840   -7.8140   -6.1780 O.3   869  INH869     -0.3510
      9  O5       -17.0320   -4.5310   -5.6040 O.3   869  INH869     -0.3880
     10  H21      -17.6490   -3.8190   -5.7220 H     869  INH869      0.2100
     11  O6       -18.1240   -4.2470   -8.2280 O.3   869  INH869     -0.3910
     12  H22      -17.2820   -4.5120   -8.5800 H     869  INH869      0.2100
     13  N1       -20.0460   -6.0580   -9.1700 N.4   869  INH869     -0.0560
     14  H44      -20.7990   -6.7280   -9.1390 H     869  INH869      0.2780
     15  H20      -20.4250   -5.0780   -8.9170 H     869  INH869      0.2780
     16  C1       -19.5670   -5.9970  -10.5770 C.3   869  INH869      0.2400
     17  C2       -20.6580   -5.7240  -11.6350 C.3   869  INH869      0.1840
     18  C3       -21.5500   -6.9570  -11.7870 C.3   869  INH869      0.1820
     19  C4       -20.7280   -8.0700  -12.4100 C.3   869  INH869      0.1800
     20  C5       -19.3860   -8.2140  -11.7260 C.2   869  INH869     -0.0270
     21  C7       -18.8000   -7.2430  -11.0070 C.2   869  INH869      0.0160
     22  O1       -21.4640   -4.6190  -11.2520 O.3   869  INH869     -0.3900
     23  H8       -21.4410   -4.5230  -10.3060 H     869  INH869      0.2100
     24  O2       -22.8060   -6.7500  -12.5240 O.3   869  INH869     -0.3900
     25  H9       -22.9470   -5.8180  -12.6550 H     869  INH869      0.2100
     26  O3       -21.4530   -9.2950  -12.3040 O.3   869  INH869     -0.3880
     27  H10      -22.3400   -9.1140  -12.0160 H     869  INH869      0.2100
     28  C6       -18.6920   -9.5260  -11.9270 C.3   869  INH869      0.2010
     29  O4       -17.6580   -9.1980  -12.8760 O.3   869  INH869     -0.3970
     30  H11      -18.0110   -9.2390  -13.7550 H     869  INH869      0.2090
     31  C17      -18.9200   -6.5650   -3.1640 C.3   869  INH869      0.1870
     32  C16      -17.8200   -5.7510   -2.4820 C.3   869  INH869      0.1830
     33  C15      -17.8280   -5.8750   -0.9560 C.3   869  INH869      0.2040
     34  C14      -19.2200   -5.6650   -0.3690 C.3   869  INH869      0.2920
     35  O11      -20.1500   -6.5180   -1.0590 O.3   869  INH869     -0.3480
     36  C18      -20.2680   -6.3090   -2.4820 C.3   869  INH869      0.1800
     37  O9       -16.5430   -6.1260   -3.0160 O.3   869  INH869     -0.3900
     38  H31      -16.4130   -5.7010   -3.8560 H     869  INH869      0.2100
     39  O8       -16.9920   -4.8340   -0.4650 O.3   869  INH869     -0.3880
     40  H30      -16.8900   -4.1660   -1.1350 H     869  INH869      0.2100
     41  O16      -19.6050   -4.2940   -0.5320 O.3   869  INH869     -0.3480
     42  C23      -20.0180   -3.5680    0.6340 C.3   869  INH869      0.1870
     43  C22      -19.2600   -2.2400    0.5350 C.3   869  INH869      0.1830
     44  C21      -19.6530   -1.2300    1.6190 C.3   869  INH869      0.2040
     45  C20      -21.1870   -1.0960    1.8080 C.3   869  INH869      0.2880
     46  O17      -21.8840   -2.3580    1.7410 O.3   869  INH869     -0.3490
     47  C24      -21.5310   -3.2450    0.6540 C.3   869  INH869      0.1800
     48  O15      -17.8360   -2.4690    0.5410 O.3   869  INH869     -0.3900
     49  H42      -17.3880   -1.6740    0.8050 H     869  INH869      0.2100
     50  O14      -19.0450    0.0320    1.2760 O.3   869  INH869     -0.3880
     51  H41      -19.7040    0.6150    0.9180 H     869  INH869      0.2100
     52  O13      -21.7620   -0.1740    0.8670 O.3   869  INH869     -0.3690
     53  H40      -22.1870    0.5340    1.3370 H     869  INH869      0.2120
     54  C25      -22.4390   -4.4750    0.7230 C.3   869  INH869      0.1980
     55  O18      -23.8140   -4.0500    0.6900 O.3   869  INH869     -0.3980
     56  H43      -24.3470   -4.7300    0.2970 H     869  INH869      0.2090
     57  C19      -21.3800   -7.2050   -3.0160 C.3   869  INH869      0.1980
     58  O12      -20.8250   -8.1760   -3.9170 O.3   869  INH869     -0.3980
     59  H32      -21.1270   -7.9970   -4.7990 H     869  INH869      0.2090
@<TRIPOS>BOND
     1    30    29    1
     2    29    28    1
     3    25    24    1
     4    24    18    1
     5    19    26    1
     6    19    18    1
     7    19    20    1
     8    26    27    1
     9    28    20    1
    10    18    17    1
    11    20    21    2
    12    17    22    1
    13    17    16    1
    14    22    23    1
    15    21    16    1
    16    16    13    1
    17    13    14    1
    18    13    15    1
    19    13     5    1
    20    12    11    1
    21    11     4    1
    22     5     4    1
    23     5     6    1
    24     7     6    1
    25     4     3    1
    26     6     8    1
    27     3     9    1
    28     3     2    1
    29     8     2    1
    30    10     9    1
    31     2     1    1
    32    59    58    1
    33     1    31    1
    34    58    57    1
    35    38    37    1
    36    31    36    1
    37    31    32    1
    38    37    32    1
    39    57    36    1
    40    36    35    1
    41    32    33    1
    42    40    39    1
    43    35    34    1
    44    33    39    1
    45    33    34    1
    46    41    34    1
    47    41    42    1
    48    56    55    1
    49    43    48    1
    50    43    42    1
    51    43    44    1
    52    48    49    1
    53    42    47    1
    54    47    54    1
    55    47    46    1
    56    55    54    1
    57    52    53    1
    58    52    45    1
    59    51    50    1
    60    50    44    1
    61    44    45    1
    62    46    45    1
