@<TRIPOS>MOLECULE
/tmp/ewbell/vina_2qmj_2qmj_lig/vina/vina4.pdbqt
 59 62 0 0 0
SMALL
GASTEIGER

@<TRIPOS>ATOM
      1  O10      -18.9120   -6.2710   -4.5710 O.3   869  INH869     -0.3480
      2  C8       -17.8690   -6.7400   -5.4490 C.3   869  INH869      0.2920
      3  C9       -17.4430   -5.6110   -6.3870 C.3   869  INH869      0.2040
      4  C10      -18.6020   -5.2270   -7.3200 C.3   869  INH869      0.1840
      5  C11      -19.0250   -6.4370   -8.1540 C.3   869  INH869      0.2460
      6  C12      -19.4250   -7.5640   -7.1780 C.3   869  INH869      0.1540
      7  C13      -19.7520   -8.8670   -7.8990 C.3   869  INH869      0.0420
      8  O7       -18.3370   -7.8260   -6.2550 O.3   869  INH869     -0.3510
      9  O5       -17.0810   -4.4780   -5.6000 O.3   869  INH869     -0.3880
     10  H21      -17.2170   -4.6740   -4.6810 H     869  INH869      0.2100
     11  O6       -18.2030   -4.1910   -8.2110 O.3   869  INH869     -0.3910
     12  H22      -18.0870   -3.3820   -7.7250 H     869  INH869      0.2100
     13  N1       -20.0180   -6.0880   -9.1920 N.4   869  INH869     -0.0560
     14  H44      -20.7530   -6.7780   -9.1470 H     869  INH869      0.2780
     15  H20      -20.4190   -5.1180   -8.9380 H     869  INH869      0.2780
     16  C1       -19.5640   -6.0210  -10.6080 C.3   869  INH869      0.2400
     17  C2       -20.6720   -5.7370  -11.6440 C.3   869  INH869      0.1840
     18  C3       -21.5720   -6.9650  -11.7880 C.3   869  INH869      0.1820
     19  C4       -20.7660   -8.0780  -12.4320 C.3   869  INH869      0.1800
     20  C5       -19.4130   -8.2320  -11.7730 C.2   869  INH869     -0.0270
     21  C7       -18.8100   -7.2670  -11.0590 C.2   869  INH869      0.0160
     22  O1       -21.4670   -4.6310  -11.2400 O.3   869  INH869     -0.3900
     23  H8       -21.9010   -4.8360  -10.4190 H     869  INH869      0.2100
     24  O2       -22.8410   -6.7480  -12.5010 O.3   869  INH869     -0.3900
     25  H9       -23.2600   -7.5860  -12.6640 H     869  INH869      0.2100
     26  O3       -21.4950   -9.3000  -12.3210 O.3   869  INH869     -0.3880
     27  H10      -21.9030   -9.3480  -11.4650 H     869  INH869      0.2100
     28  C6       -18.7280   -9.5450  -11.9940 C.3   869  INH869      0.2010
     29  O4       -17.6380   -9.1940  -12.8690 O.3   869  INH869     -0.3970
     30  H11      -17.5320   -8.2510  -12.8790 H     869  INH869      0.2090
     31  C17      -18.6360   -5.0790   -3.8350 C.3   869  INH869      0.1870
     32  C16      -19.9220   -4.2560   -3.7570 C.3   869  INH869      0.1830
     33  C15      -19.8340   -3.0800   -2.7800 C.3   869  INH869      0.2040
     34  C14      -19.2720   -3.4970   -1.4250 C.3   869  INH869      0.2920
     35  O11      -18.0440   -4.2180   -1.6310 O.3   869  INH869     -0.3480
     36  C18      -18.1380   -5.4190   -2.4250 C.3   869  INH869      0.1800
     37  O9       -20.2820   -3.8020   -5.0680 O.3   869  INH869     -0.3900
     38  H31      -20.6510   -4.5250   -5.5630 H     869  INH869      0.2100
     39  O8       -21.1680   -2.6290   -2.5740 O.3   869  INH869     -0.3880
     40  H30      -21.3040   -2.4560   -1.6490 H     869  INH869      0.2100
     41  O16      -20.2200   -4.3370   -0.7540 O.3   869  INH869     -0.3480
     42  C23      -20.3770   -4.1760    0.6630 C.3   869  INH869      0.1870
     43  C22      -18.9820   -4.4600    1.2290 C.3   869  INH869      0.1830
     44  C21      -18.8730   -4.2120    2.7380 C.3   869  INH869      0.2040
     45  C20      -19.5020   -2.8670    3.1870 C.3   869  INH869      0.2880
     46  O17      -20.7430   -2.5620    2.5150 O.3   869  INH869     -0.3490
     47  C24      -20.7710   -2.7400    1.0800 C.3   869  INH869      0.1800
     48  O15      -18.5650   -5.8000    0.8990 O.3   869  INH869     -0.3900
     49  H42      -17.9990   -6.1340    1.5860 H     869  INH869      0.2100
     50  O14      -17.4770   -4.2930    3.0900 O.3   869  INH869     -0.3880
     51  H41      -17.3390   -3.8830    3.9360 H     869  INH869      0.2100
     52  O13      -18.5850   -1.7700    3.0310 O.3   869  INH869     -0.3690
     53  H40      -18.9880   -1.0940    2.4990 H     869  INH869      0.2120
     54  C25      -22.1410   -2.2850    0.5670 C.3   869  INH869      0.1980
     55  O18      -21.9640   -1.1760   -0.3330 O.3   869  INH869     -0.3980
     56  H43      -21.4970   -1.4670   -1.1070 H     869  INH869      0.2090
     57  C19      -16.7780   -6.1080   -2.4300 C.3   869  INH869      0.1980
     58  O12      -15.7940   -5.2280   -2.9910 O.3   869  INH869     -0.3980
     59  H32      -15.0530   -5.7360   -3.2980 H     869  INH869      0.2090
@<TRIPOS>BOND
     1    30    29    1
     2    29    28    1
     3    25    24    1
     4    24    18    1
     5    19    26    1
     6    19    18    1
     7    19    20    1
     8    26    27    1
     9    28    20    1
    10    18    17    1
    11    20    21    2
    12    17    22    1
    13    17    16    1
    14    22    23    1
    15    21    16    1
    16    16    13    1
    17    13    14    1
    18    13    15    1
    19    13     5    1
    20    11    12    1
    21    11     4    1
    22     5     4    1
    23     5     6    1
    24     7     6    1
    25     4     3    1
    26     6     8    1
    27     3     9    1
    28     3     2    1
    29     8     2    1
    30     9    10    1
    31    38    37    1
    32     2     1    1
    33    37    32    1
    34     1    31    1
    35    31    32    1
    36    31    36    1
    37    32    33    1
    38    59    58    1
    39    58    57    1
    40    33    39    1
    41    33    34    1
    42    39    40    1
    43    57    36    1
    44    36    35    1
    45    35    34    1
    46    34    41    1
    47    56    55    1
    48    41    42    1
    49    55    54    1
    50    54    47    1
    51    42    47    1
    52    42    43    1
    53    48    43    1
    54    48    49    1
    55    47    46    1
    56    43    44    1
    57    53    52    1
    58    46    45    1
    59    44    50    1
    60    44    45    1
    61    52    45    1
    62    50    51    1
