@<TRIPOS>MOLECULE
/tmp/ewbell/vina_2qmj_2qmj_lig/vina/vina1.pdbqt
 59 62 0 0 0
SMALL
GASTEIGER

@<TRIPOS>ATOM
      1  O10      -19.8920   -6.1130   -4.3230 O.3   869  INH869     -0.3480
      2  C8       -18.6840   -6.5030   -5.0060 C.3   869  INH869      0.2920
      3  C9       -18.2470   -5.3850   -5.9520 C.3   869  INH869      0.2040
      4  C10      -19.2860   -5.1940   -7.0670 C.3   869  INH869      0.1840
      5  C11      -19.4430   -6.4900   -7.8630 C.3   869  INH869      0.2460
      6  C12      -19.8610   -7.6010   -6.8760 C.3   869  INH869      0.1540
      7  C13      -19.9310   -8.9710   -7.5400 C.3   869  INH869      0.0420
      8  O7       -18.9030   -7.6800   -5.7890 O.3   869  INH869     -0.3510
      9  O5       -18.1330   -4.1750   -5.2050 O.3   869  INH869     -0.3880
     10  H21      -18.8730   -4.0960   -4.6150 H     869  INH869      0.2100
     11  O6       -18.8720   -4.1690   -7.9640 O.3   869  INH869     -0.3910
     12  H22      -18.1140   -4.4640   -8.4550 H     869  INH869      0.2100
     13  N1       -20.3000   -6.3200   -9.0560 N.4   869  INH869     -0.0560
     14  H44      -20.8990   -7.1300   -9.1120 H     869  INH869      0.2780
     15  H20      -20.9030   -5.4380   -8.8930 H     869  INH869      0.2780
     16  C1       -19.6420   -6.1660  -10.3820 C.3   869  INH869      0.2400
     17  C2       -20.5710   -5.7360  -11.5360 C.3   869  INH869      0.1840
     18  C3       -21.4980   -6.8930  -11.9130 C.3   869  INH869      0.1820
     19  C4       -20.6600   -7.9960  -12.5310 C.3   869  INH869      0.1800
     20  C5       -19.4260   -8.2830  -11.7020 C.2   869  INH869     -0.0270
     21  C7       -18.8900   -7.4160  -10.8290 C.2   869  INH869      0.0160
     22  O1       -21.3640   -4.6200  -11.1530 O.3   869  INH869     -0.3900
     23  H8       -22.0600   -4.9100  -10.5740 H     869  INH869      0.2100
     24  O2       -22.6360   -6.5450  -12.7770 O.3   869  INH869     -0.3900
     25  H9       -23.2890   -6.0770  -12.2670 H     869  INH869      0.2100
     26  O3       -21.4540   -9.1790  -12.6320 O.3   869  INH869     -0.3880
     27  H10      -21.6910   -9.3230  -13.5400 H     869  INH869      0.2100
     28  C6       -18.7800   -9.6120  -11.9390 C.3   869  INH869      0.2010
     29  O4       -17.6170   -9.2690  -12.7190 O.3   869  INH869     -0.3970
     30  H11      -16.9490   -8.9090  -12.1490 H     869  INH869      0.2090
     31  C17      -19.8540   -6.1410   -2.8960 C.3   869  INH869      0.1870
     32  C16      -20.2360   -4.7530   -2.3800 C.3   869  INH869      0.1830
     33  C15      -20.4840   -4.7130   -0.8690 C.3   869  INH869      0.2040
     34  C14      -21.4100   -5.8320   -0.4070 C.3   869  INH869      0.2920
     35  O11      -20.9180   -7.0850   -0.9150 O.3   869  INH869     -0.3480
     36  C18      -20.8240   -7.1950   -2.3510 C.3   869  INH869      0.1800
     37  O9       -19.2280   -3.8060   -2.7560 O.3   869  INH869     -0.3900
     38  H31      -18.4510   -4.2680   -3.0470 H     869  INH869      0.2100
     39  O8       -21.1360   -3.4760   -0.6030 O.3   869  INH869     -0.3880
     40  H30      -22.0770   -3.6110   -0.5850 H     869  INH869      0.2100
     41  O16      -22.7330   -5.5930   -0.9050 O.3   869  INH869     -0.3480
     42  C23      -23.8420   -5.9900   -0.0870 C.3   869  INH869      0.1870
     43  C22      -24.5480   -4.6730    0.2510 C.3   869  INH869      0.1830
     44  C21      -25.8630   -4.8630    1.0170 C.3   869  INH869      0.2040
     45  C20      -26.7760   -5.9590    0.4080 C.3   869  INH869      0.2880
     46  O17      -26.0520   -7.1240   -0.0410 O.3   869  INH869     -0.3490
     47  C24      -24.8590   -6.8930   -0.8260 C.3   869  INH869      0.1800
     48  O15      -23.6600   -3.7930    0.9690 O.3   869  INH869     -0.3900
     49  H42      -23.1590   -3.2740    0.3510 H     869  INH869      0.2100
     50  O14      -26.5250   -3.5830    1.0660 O.3   869  INH869     -0.3880
     51  H41      -25.9030   -2.8960    0.8520 H     869  INH869      0.2100
     52  O13      -27.5810   -5.4460   -0.6680 O.3   869  INH869     -0.3690
     53  H40      -28.1790   -6.1220   -0.9660 H     869  INH869      0.2120
     54  C25      -24.3000   -8.2500   -1.2610 C.3   869  INH869      0.1980
     55  O18      -23.3220   -8.6880   -0.3010 O.3   869  INH869     -0.3980
     56  H43      -22.4800   -8.7870   -0.7280 H     869  INH869      0.2090
     57  C19      -20.4080   -8.6190   -2.7040 C.3   869  INH869      0.1980
     58  O12      -20.9530   -8.9760   -3.9840 O.3   869  INH869     -0.3980
     59  H32      -20.2500   -9.0550   -4.6160 H     869  INH869      0.2090
@<TRIPOS>BOND
     1    27    26    1
     2    24    25    1
     3    24    18    1
     4    29    30    1
     5    29    28    1
     6    26    19    1
     7    19    18    1
     8    19    20    1
     9    28    20    1
    10    18    17    1
    11    20    21    2
    12    17    22    1
    13    17    16    1
    14    22    23    1
    15    21    16    1
    16    16    13    1
    17    14    13    1
    18    13    15    1
    19    13     5    1
    20    12    11    1
    21    11     4    1
    22     5     4    1
    23     5     6    1
    24     7     6    1
    25     4     3    1
    26     6     8    1
    27     3     9    1
    28     3     2    1
    29     8     2    1
    30     9    10    1
    31     2     1    1
    32    59    58    1
    33     1    31    1
    34    58    57    1
    35    38    37    1
    36    31    32    1
    37    31    36    1
    38    37    32    1
    39    57    36    1
    40    32    33    1
    41    36    35    1
    42    54    47    1
    43    54    55    1
    44    53    52    1
    45    35    34    1
    46    41    34    1
    47    41    42    1
    48    33    39    1
    49    33    34    1
    50    47    42    1
    51    47    46    1
    52    56    55    1
    53    52    45    1
    54    39    40    1
    55    42    43    1
    56    46    45    1
    57    43    48    1
    58    43    44    1
    59    49    48    1
    60    45    44    1
    61    51    50    1
    62    44    50    1
