@<TRIPOS>MOLECULE
/tmp/ewbell/vina_2qmj_2qmj_lig/vina/vina5.pdbqt
 59 62 0 0 0
SMALL
GASTEIGER

@<TRIPOS>ATOM
      1  O10      -19.1020   -6.4180   -4.4200 O.3   869  INH869     -0.3480
      2  C8       -17.9860   -6.7570   -5.2680 C.3   869  INH869      0.2920
      3  C9       -17.6340   -5.5640   -6.1540 C.3   869  INH869      0.2040
      4  C10      -18.7880   -5.2600   -7.1230 C.3   869  INH869      0.1840
      5  C11      -19.0610   -6.4770   -8.0080 C.3   869  INH869      0.2460
      6  C12      -19.3890   -7.6680   -7.0820 C.3   869  INH869      0.1540
      7  C13      -19.5620   -8.9720   -7.8540 C.3   869  INH869      0.0420
      8  O7       -18.3170   -7.8560   -6.1230 O.3   869  INH869     -0.3510
      9  O5       -17.4120   -4.4280   -5.3210 O.3   869  INH869     -0.3880
     10  H21      -17.7370   -4.6070   -4.4470 H     869  INH869      0.2100
     11  O6       -18.4550   -4.1630   -7.9670 O.3   869  INH869     -0.3910
     12  H22      -19.1320   -3.4980   -7.9040 H     869  INH869      0.2100
     13  N1       -20.0420   -6.1900   -9.0760 N.4   869  INH869     -0.0560
     14  H44      -20.7260   -6.9320   -9.0610 H     869  INH869      0.2780
     15  H20      -20.5210   -5.2540   -8.8270 H     869  INH869      0.2780
     16  C1       -19.5490   -6.0730  -10.4750 C.3   869  INH869      0.2400
     17  C2       -20.6210   -5.7210  -11.5280 C.3   869  INH869      0.1840
     18  C3       -21.5440   -6.9210  -11.7470 C.3   869  INH869      0.1820
     19  C4       -20.7450   -8.0240  -12.4160 C.3   869  INH869      0.1800
     20  C5       -19.4140   -8.2370  -11.7280 C.2   869  INH869     -0.0270
     21  C7       -18.8100   -7.3170  -10.9590 C.2   869  INH869      0.0160
     22  O1       -21.4020   -4.6140  -11.0980 O.3   869  INH869     -0.3900
     23  H8       -22.2430   -4.6300  -11.5420 H     869  INH869      0.2100
     24  O2       -22.7870   -6.6450  -12.4840 O.3   869  INH869     -0.3900
     25  H9       -22.6470   -6.8020  -13.4110 H     869  INH869      0.2100
     26  O3       -21.5030   -9.2330  -12.3760 O.3   869  INH869     -0.3880
     27  H10      -21.4460   -9.6140  -11.5080 H     869  INH869      0.2100
     28  C6       -18.7530   -9.5550  -11.9870 C.3   869  INH869      0.2010
     29  O4       -17.6220   -9.1910  -12.8020 O.3   869  INH869     -0.3970
     30  H11      -16.8330   -9.5730  -12.4380 H     869  INH869      0.2090
     31  C17      -18.9880   -6.7780   -3.0440 C.3   869  INH869      0.1870
     32  C16      -18.2600   -8.1190   -2.9580 C.3   869  INH869      0.1830
     33  C15      -17.8450   -8.4980   -1.5340 C.3   869  INH869      0.2040
     34  C14      -17.1390   -7.3520   -0.8170 C.3   869  INH869      0.2920
     35  O11      -17.9430   -6.1660   -0.9270 O.3   869  INH869     -0.3480
     36  C18      -18.2160   -5.7060   -2.2670 C.3   869  INH869      0.1800
     37  O9       -19.0730   -9.1460   -3.5410 O.3   869  INH869     -0.3900
     38  H31      -18.6460   -9.9880   -3.4340 H     869  INH869      0.2100
     39  O8       -16.9150   -9.5680   -1.6580 O.3   869  INH869     -0.3880
     40  H30      -16.0330   -9.2170   -1.7060 H     869  INH869      0.2100
     41  O16      -15.8580   -7.1280   -1.4210 O.3   869  INH869     -0.3480
     42  C23      -14.7020   -7.1340   -0.5720 C.3   869  INH869      0.1870
     43  C22      -13.6850   -7.9920   -1.3310 C.3   869  INH869      0.1830
     44  C21      -12.3020   -8.0290   -0.6700 C.3   869  INH869      0.2040
     45  C20      -11.7890   -6.6300   -0.2390 C.3   869  INH869      0.2880
     46  O17      -12.8170   -5.7940    0.3330 O.3   869  INH869     -0.3490
     47  C24      -14.0790   -5.7330   -0.3710 C.3   869  INH869      0.1800
     48  O15      -14.1940   -9.3270   -1.5270 O.3   869  INH869     -0.3900
     49  H42      -13.4700   -9.9390   -1.5720 H     869  INH869      0.2100
     50  O14      -11.3980   -8.6700   -1.5920 O.3   869  INH869     -0.3880
     51  H41      -10.5010   -8.4910   -1.3330 H     869  INH869      0.2100
     52  O13      -11.1510   -5.9380   -1.3260 O.3   869  INH869     -0.3690
     53  H40      -11.2110   -6.4640   -2.1150 H     869  INH869      0.2120
     54  C25      -14.9860   -4.7350    0.3550 C.3   869  INH869      0.1980
     55  O18      -15.7990   -4.0450   -0.6120 O.3   869  INH869     -0.3980
     56  H43      -16.7160   -4.1620   -0.3970 H     869  INH869      0.2090
     57  C19      -18.9670   -4.3810   -2.1850 C.3   869  INH869      0.1980
     58  O12      -20.3470   -4.5880   -2.5180 O.3   869  INH869     -0.3980
     59  H32      -20.4540   -4.5520   -3.4610 H     869  INH869      0.2090
@<TRIPOS>BOND
     1    25    24    1
     2    29    30    1
     3    29    28    1
     4    24    18    1
     5    19    26    1
     6    19    18    1
     7    19    20    1
     8    26    27    1
     9    28    20    1
    10    18    17    1
    11    20    21    2
    12    23    22    1
    13    17    22    1
    14    17    16    1
    15    21    16    1
    16    16    13    1
    17    13    14    1
    18    13    15    1
    19    13     5    1
    20     5     4    1
    21     5     6    1
    22    11    12    1
    23    11     4    1
    24     7     6    1
    25     4     3    1
    26     6     8    1
    27     3     9    1
    28     3     2    1
    29     8     2    1
    30     9    10    1
    31     2     1    1
    32     1    31    1
    33    37    38    1
    34    37    32    1
    35    59    58    1
    36    31    32    1
    37    31    36    1
    38    32    33    1
    39    58    57    1
    40    36    57    1
    41    36    35    1
    42    53    52    1
    43    40    39    1
    44    39    33    1
    45    50    51    1
    46    50    44    1
    47    49    48    1
    48    33    34    1
    49    48    43    1
    50    41    34    1
    51    41    42    1
    52    43    44    1
    53    43    42    1
    54    52    45    1
    55    35    34    1
    56    44    45    1
    57    55    56    1
    58    55    54    1
    59    42    47    1
    60    47    46    1
    61    47    54    1
    62    45    46    1
