@<TRIPOS>MOLECULE
/tmp/ewbell/vina_2qmj_2qmj_lig/vina/vina3.pdbqt
 59 62 0 0 0
SMALL
GASTEIGER

@<TRIPOS>ATOM
      1  O10      -18.9720   -6.2420   -4.5560 O.3   869  INH869     -0.3480
      2  C8       -17.9290   -6.7290   -5.4250 C.3   869  INH869      0.2920
      3  C9       -17.4860   -5.6110   -6.3680 C.3   869  INH869      0.2040
      4  C10      -18.6360   -5.2220   -7.3110 C.3   869  INH869      0.1840
      5  C11      -19.0660   -6.4340   -8.1380 C.3   869  INH869      0.2460
      6  C12      -19.4840   -7.5500   -7.1560 C.3   869  INH869      0.1540
      7  C13      -19.8200   -8.8550   -7.8700 C.3   869  INH869      0.0420
      8  O7       -18.4040   -7.8160   -6.2250 O.3   869  INH869     -0.3510
      9  O5       -17.1160   -4.4760   -5.5880 O.3   869  INH869     -0.3880
     10  H21      -16.8980   -3.7530   -6.1640 H     869  INH869      0.2100
     11  O6       -18.2210   -4.1970   -8.2080 O.3   869  INH869     -0.3910
     12  H22      -17.7430   -3.5310   -7.7280 H     869  INH869      0.2100
     13  N1       -20.0500   -6.0830   -9.1850 N.4   869  INH869     -0.0560
     14  H44      -20.7850   -6.7730   -9.1470 H     869  INH869      0.2780
     15  H20      -20.4520   -5.1130   -8.9320 H     869  INH869      0.2780
     16  C1       -19.5840   -6.0130  -10.5970 C.3   869  INH869      0.2400
     17  C2       -20.6820   -5.7280  -11.6420 C.3   869  INH869      0.1840
     18  C3       -21.5810   -6.9560  -11.7960 C.3   869  INH869      0.1820
     19  C4       -20.7690   -8.0680  -12.4340 C.3   869  INH869      0.1800
     20  C5       -19.4210   -8.2230  -11.7630 C.2   869  INH869     -0.0270
     21  C7       -18.8260   -7.2600  -11.0420 C.2   869  INH869      0.0160
     22  O1       -21.4810   -4.6230  -11.2440 O.3   869  INH869     -0.3900
     23  H8       -21.5750   -4.0210  -11.9750 H     869  INH869      0.2100
     24  O2       -22.8430   -6.7380  -12.5200 O.3   869  INH869     -0.3900
     25  H9       -23.2040   -5.8920  -12.2790 H     869  INH869      0.2100
     26  O3       -21.4990   -9.2910  -12.3310 O.3   869  INH869     -0.3880
     27  H10      -22.1910   -9.1930  -11.6880 H     869  INH869      0.2100
     28  C6       -18.7350   -9.5360  -11.9800 C.3   869  INH869      0.2010
     29  O4       -17.7040   -9.2050  -12.9310 O.3   869  INH869     -0.3970
     30  H11      -16.8600   -9.2170  -12.4990 H     869  INH869      0.2090
     31  C17      -18.6840   -5.0550   -3.8190 C.3   869  INH869      0.1870
     32  C16      -19.9530   -4.2050   -3.7640 C.3   869  INH869      0.1830
     33  C15      -19.8570   -3.0280   -2.7890 C.3   869  INH869      0.2040
     34  C14      -19.3260   -3.4530   -1.4240 C.3   869  INH869      0.2920
     35  O11      -18.1100   -4.1990   -1.6080 O.3   869  INH869     -0.3480
     36  C18      -18.2160   -5.4000   -2.4000 C.3   869  INH869      0.1800
     37  O9       -20.2830   -3.7480   -5.0820 O.3   869  INH869     -0.3900
     38  H31      -20.1260   -4.4450   -5.7080 H     869  INH869      0.2100
     39  O8       -21.1840   -2.5490   -2.6050 O.3   869  INH869     -0.3880
     40  H30      -21.7910   -3.1070   -3.0810 H     869  INH869      0.2100
     41  O16      -20.3020   -4.2710   -0.7650 O.3   869  INH869     -0.3480
     42  C23      -20.4560   -4.1260    0.6530 C.3   869  INH869      0.1870
     43  C22      -21.8550   -3.5230    0.8180 C.3   869  INH869      0.1830
     44  C21      -22.3010   -3.4030    2.2800 C.3   869  INH869      0.2040
     45  C20      -22.0380   -4.6870    3.1100 C.3   869  INH869      0.2880
     46  O17      -20.7710   -5.3120    2.8120 O.3   869  INH869     -0.3490
     47  C24      -20.4310   -5.4710    1.4150 C.3   869  INH869      0.1800
     48  O15      -21.9370   -2.2460    0.1510 O.3   869  INH869     -0.3900
     49  H42      -22.8060   -1.8820    0.2720 H     869  INH869      0.2100
     50  O14      -23.6970   -3.0430    2.2790 O.3   869  INH869     -0.3880
     51  H41      -23.9260   -2.6590    3.1170 H     869  INH869      0.2100
     52  O13      -23.0990   -5.6460    2.9590 O.3   869  INH869     -0.3690
     53  H40      -22.7500   -6.5230    3.0710 H     869  INH869      0.2120
     54  C25      -19.1000   -6.2230    1.3280 C.3   869  INH869      0.1980
     55  O18      -18.0310   -5.2740    1.1600 O.3   869  INH869     -0.3980
     56  H43      -18.3870   -4.3940    1.1550 H     869  INH869      0.2090
     57  C19      -16.8700   -6.1170   -2.3810 C.3   869  INH869      0.1980
     58  O12      -15.8710   -5.2820   -2.9850 O.3   869  INH869     -0.3980
     59  H32      -15.6370   -5.6330   -3.8360 H     869  INH869      0.2090
@<TRIPOS>BOND
     1    29    30    1
     2    29    28    1
     3    24    25    1
     4    24    18    1
     5    19    26    1
     6    19    18    1
     7    19    20    1
     8    26    27    1
     9    28    20    1
    10    23    22    1
    11    18    17    1
    12    20    21    2
    13    17    22    1
    14    17    16    1
    15    21    16    1
    16    16    13    1
    17    13    14    1
    18    13    15    1
    19    13     5    1
    20    11    12    1
    21    11     4    1
    22     5     4    1
    23     5     6    1
    24     7     6    1
    25     4     3    1
    26     6     8    1
    27     3     9    1
    28     3     2    1
    29     8     2    1
    30    10     9    1
    31    38    37    1
    32     2     1    1
    33    37    32    1
    34     1    31    1
    35    59    58    1
    36    31    32    1
    37    31    36    1
    38    32    33    1
    39    40    39    1
    40    58    57    1
    41    33    39    1
    42    33    34    1
    43    36    57    1
    44    36    35    1
    45    35    34    1
    46    34    41    1
    47    41    42    1
    48    48    49    1
    49    48    43    1
    50    42    43    1
    51    42    47    1
    52    43    44    1
    53    56    55    1
    54    55    54    1
    55    54    47    1
    56    47    46    1
    57    50    44    1
    58    50    51    1
    59    44    45    1
    60    46    45    1
    61    52    53    1
    62    52    45    1
