@<TRIPOS>MOLECULE
./ligand/1w6o_lig.pdb
 45 46 0 0 0
SMALL
GASTEIGER

@<TRIPOS>ATOM
      1  C1        -0.5300   60.2290   24.7000 C.3   273  INH273      0.1884
      2  C2        -0.5920   58.6850   24.8870 C.3   273  INH273      0.1341
      3  C3         0.4060   58.2990   26.0240 C.3   273  INH273      0.1141
      4  C4         1.8450   58.7150   25.5930 C.3   273  INH273      0.1119
      5  C5         1.8360   60.2700   25.3790 C.3   273  INH273      0.1130
      6  C6         3.1960   60.7790   24.9210 C.3   273  INH273      0.0730
      7  O1        -1.4290   60.6000   23.6780 O.3   273  INH273     -0.3401
      8  O2        -1.9210   58.3230   25.2520 O.3   273  INH273     -0.3841
      9  O3         0.3660   56.8780   26.2180 O.3   273  INH273     -0.3864
     10  O4         2.1960   58.0330   24.3760 O.3   273  INH273     -0.3865
     11  O5         0.8310   60.6370   24.3490 O.3   273  INH273     -0.3405
     12  O6         3.1030   62.1910   24.7490 O.3   273  INH273     -0.3924
     13  C7        -3.0010   64.1200   21.8540 C.3   273  INH273      0.1854
     14  C8        -1.6040   63.6350   21.3820 C.3   273  INH273      0.1339
     15  C9        -1.4620   62.1270   21.7350 C.3   273  INH273      0.1144
     16  C10       -1.5840   62.0020   23.2830 C.3   273  INH273      0.1184
     17  C11       -3.0080   62.5300   23.7370 C.3   273  INH273      0.1134
     18  C12       -3.2430   62.4810   25.2550 C.3   273  INH273      0.0730
     19  O7        -3.1630   65.4730   21.5560 O.3   273  INH273     -0.3649
     20  O8        -1.4950   63.8200   19.9620 O.3   273  INH273     -0.3841
     21  O9        -0.1700   61.6800   21.3100 O.3   273  INH273     -0.3864
     22  O10       -3.1700   63.9350   23.3050 O.3   273  INH273     -0.3407
     23  O11       -2.1580   63.0650   25.9990 O.3   273  INH273     -0.3924
     24  H1        -0.8220   60.7220   25.6390 H     273  INH273      0.0938
     25  H2        -0.3110   58.1770   23.9530 H     273  INH273      0.0671
     26  H3         0.1300   58.8130   26.9570 H     273  INH273      0.0648
     27  H4         2.5660   58.4510   26.3800 H     273  INH273      0.0647
     28  H5         1.5740   60.7550   26.3310 H     273  INH273      0.0647
     29  H6         3.4700   60.3040   23.9680 H     273  INH273      0.0584
     30  H7         3.9570   60.5450   25.6800 H     273  INH273      0.0584
     31  H8        -2.5180   58.5630   24.5530 H     273  INH273      0.2101
     32  H9        -0.5090   56.6190   26.4810 H     273  INH273      0.2100
     33  H10        2.1960   57.0950   24.5270 H     273  INH273      0.2100
     34  H11        2.5710   62.5590   25.4440 H     273  INH273      0.2095
     35  H12       -3.7720   63.5390   21.3270 H     273  INH273      0.0935
     36  H13       -0.8170   64.2110   21.8900 H     273  INH273      0.0671
     37  H14       -2.2480   61.5370   21.2400 H     273  INH273      0.0648
     38  H15       -0.7990   62.6050   23.7630 H     273  INH273      0.0651
     39  H16       -3.7730   61.9090   23.2480 H     273  INH273      0.0647
     40  H17       -3.3550   61.4300   25.5610 H     273  INH273      0.0584
     41  H18       -4.1670   63.0320   25.4870 H     273  INH273      0.0584
     42  H19       -4.0200   65.7610   21.8480 H     273  INH273      0.2126
     43  H20       -1.5830   64.7430   19.7550 H     273  INH273      0.2101
     44  H21        0.4920   62.0260   21.8970 H     273  INH273      0.2100
     45  H22       -2.3470   63.0120   26.9280 H     273  INH273      0.2095
@<TRIPOS>BOND
     1     1     7    1
     2     1    24    1
     3     1    11    1
     4     1     2    1
     5     2    25    1
     6     2     8    1
     7     2     3    1
     8     3    26    1
     9     3     9    1
    10     3     4    1
    11     4    27    1
    12     4    10    1
    13     4     5    1
    14     5    28    1
    15     5    11    1
    16     5     6    1
    17     6    30    1
    18     6    29    1
    19     6    12    1
    20     7    16    1
    21     8    31    1
    22     9    32    1
    23    10    33    1
    24    12    34    1
    25    13    35    1
    26    13    22    1
    27    13    19    1
    28    13    14    1
    29    14    36    1
    30    14    20    1
    31    14    15    1
    32    15    37    1
    33    15    21    1
    34    15    16    1
    35    16    38    1
    36    16    17    1
    37    17    39    1
    38    17    22    1
    39    17    18    1
    40    18    41    1
    41    18    40    1
    42    18    23    1
    43    19    42    1
    44    20    43    1
    45    21    44    1
    46    23    45    1
