@<TRIPOS>MOLECULE
/tmp/ewbell/vina_1w6o_1w6o_lig/vina/vina4.pdbqt
 31 32 0 0 0
SMALL
GASTEIGER

@<TRIPOS>ATOM
      1  O1        -1.3410   61.7930   24.5740 O.3   273  INH273     -0.3480
      2  C1        -0.4330   61.1200   25.4180 C.3   273  INH273      0.2920
      3  O5         0.9270   61.2280   24.8860 O.3   273  INH273     -0.3480
      4  C5         1.9390   60.5320   25.7210 C.3   273  INH273      0.1790
      5  C4         1.5900   59.0060   25.8310 C.3   273  INH273      0.1800
      6  C3         0.1640   58.9010   26.4540 C.3   273  INH273      0.1830
      7  C2        -0.8510   59.6240   25.5130 C.3   273  INH273      0.2040
      8  C6         3.3080   60.7480   25.0900 C.3   273  INH273      0.1980
      9  O6         3.1850   60.5350   23.6860 O.3   273  INH273     -0.3980
     10  H11        2.7850   61.2970   23.2850 H     273  INH273      0.2090
     11  O4         1.5920   58.3850   24.5340 O.3   273  INH273     -0.3900
     12  H10        0.8260   58.6670   24.0460 H     273  INH273      0.2100
     13  O3        -0.2010   57.5180   26.5610 O.3   273  INH273     -0.3900
     14  H9         0.4760   56.9800   26.1680 H     273  INH273      0.2100
     15  O2        -2.1660   59.5520   26.0570 O.3   273  INH273     -0.3880
     16  H8        -2.3350   58.6680   26.3610 H     273  INH273      0.2100
     17  C10       -0.8970   62.3920   23.3130 C.3   273  INH273      0.1870
     18  C9        -1.6270   61.7050   22.1210 C.3   273  INH273      0.1830
     19  C8        -1.0940   62.3590   20.8150 C.3   273  INH273      0.2040
     20  C7        -1.4290   63.8750   20.8530 C.3   273  INH273      0.2880
     21  O10       -0.8150   64.5300   22.0200 O.3   273  INH273     -0.3490
     22  C11       -1.2360   63.9410   23.3080 C.3   273  INH273      0.1800
     23  O9        -1.3100   60.3090   22.0930 O.3   273  INH273     -0.3900
     24  H21       -1.8740   59.8710   21.4680 H     273  INH273      0.2100
     25  O8        -1.7280   61.7640   19.6720 O.3   273  INH273     -0.3880
     26  H20       -2.6660   61.7090   19.8220 H     273  INH273      0.2100
     27  O7        -0.9610   64.4970   19.6950 O.3   273  INH273     -0.3690
     28  H19       -0.2860   63.9600   19.2980 H     273  INH273      0.2120
     29  C12       -0.5500   64.7370   24.4300 C.3   273  INH273      0.1980
     30  O11        0.7560   64.2250   24.7500 O.3   273  INH273     -0.3980
     31  H22        0.9610   64.4260   25.6550 H     273  INH273      0.2090
@<TRIPOS>BOND
     1    28    27    1
     2    25    26    1
     3    25    19    1
     4    27    20    1
     5    19    20    1
     6    19    18    1
     7    20    21    1
     8    24    23    1
     9    21    22    1
    10    23    18    1
    11    18    17    1
    12    10     9    1
    13    22    17    1
    14    22    29    1
    15    17     1    1
    16     9     8    1
    17    12    11    1
    18    29    30    1
    19    11     5    1
    20     1     2    1
    21    30    31    1
    22     3     2    1
    23     3     4    1
    24     8     4    1
    25     2     7    1
    26     7    15    1
    27     7     6    1
    28     4     5    1
    29     5     6    1
    30    15    16    1
    31    14    13    1
    32     6    13    1
