@<TRIPOS>MOLECULE
/tmp/ewbell/vina_1w6o_1w6o_lig/vina/vina2.pdbqt
 31 32 0 0 0
SMALL
GASTEIGER

@<TRIPOS>ATOM
      1  O1         1.6470   55.0760   26.0600 O.3   273  INH273     -0.3480
      2  C1         0.6010   54.1800   25.7540 C.3   273  INH273      0.2920
      3  O5         0.2530   53.3880   26.9350 O.3   273  INH273     -0.3480
      4  C5        -0.8390   52.4130   26.6840 C.3   273  INH273      0.1790
      5  C4        -0.4200   51.4150   25.5470 C.3   273  INH273      0.1800
      6  C3        -0.1090   52.2650   24.2780 C.3   273  INH273      0.1830
      7  C2         1.0640   53.2430   24.6010 C.3   273  INH273      0.2040
      8  C6        -1.1350   51.6830   27.9870 C.3   273  INH273      0.1980
      9  O6         0.0400   51.7240   28.7930 O.3   273  INH273     -0.3980
     10  H11       -0.1650   51.4130   29.6660 H     273  INH273      0.2090
     11  O4         0.7520   50.6720   25.9250 O.3   273  INH273     -0.3900
     12  H10        1.2690   50.4800   25.1510 H     273  INH273      0.2100
     13  O3         0.2920   51.3900   23.2140 O.3   273  INH273     -0.3900
     14  H9         0.3460   50.4990   23.5400 H     273  INH273      0.2100
     15  O2         1.3710   54.0400   23.4610 O.3   273  INH273     -0.3880
     16  H8         2.0330   53.6040   22.9380 H     273  INH273      0.2100
     17  C10        1.3750   56.4920   26.3190 C.3   273  INH273      0.1870
     18  C9         0.5590   57.0940   25.1370 C.3   273  INH273      0.1830
     19  C8         0.3280   58.5980   25.4540 C.3   273  INH273      0.2040
     20  C7        -0.4790   58.7030   26.7760 C.3   273  INH273      0.2880
     21  O10        0.2380   58.0670   27.8930 O.3   273  INH273     -0.3490
     22  C11        0.5370   56.6380   27.6570 C.3   273  INH273      0.1800
     23  O9         1.3130   56.9960   23.9240 O.3   273  INH273     -0.3900
     24  H21        1.6560   57.8510   23.6960 H     273  INH273      0.2100
     25  O8        -0.4190   59.2160   24.3950 O.3   273  INH273     -0.3880
     26  H20        0.1710   59.4590   23.6900 H     273  INH273      0.2100
     27  O7        -0.7030   60.0430   27.0960 O.3   273  INH273     -0.3690
     28  H19       -1.1390   60.4720   26.3700 H     273  INH273      0.2120
     29  C12        1.2500   56.1000   28.9070 C.3   273  INH273      0.1980
     30  O11        0.9160   54.7270   29.1840 O.3   273  INH273     -0.3980
     31  H22        1.0230   54.5570   30.1120 H     273  INH273      0.2090
@<TRIPOS>BOND
     1    16    15    1
     2    13    14    1
     3    13     6    1
     4    15     7    1
     5    26    25    1
     6    24    23    1
     7    23    18    1
     8     6     7    1
     9     6     5    1
    10    25    19    1
    11     7     2    1
    12    18    19    1
    13    18    17    1
    14    12    11    1
    15    19    20    1
    16     5    11    1
    17     5     4    1
    18     2     1    1
    19     2     3    1
    20     1    17    1
    21    17    22    1
    22    28    27    1
    23     4     3    1
    24     4     8    1
    25    20    27    1
    26    20    21    1
    27    22    21    1
    28    22    29    1
    29     8     9    1
    30     9    10    1
    31    29    30    1
    32    30    31    1
