@<TRIPOS>MOLECULE
/tmp/ewbell/vina_1w6o_1w6o_lig/vina/vina5.pdbqt
 31 32 0 0 0
SMALL
GASTEIGER

@<TRIPOS>ATOM
      1  O1         3.9910   51.8310   30.5090 O.3   273  INH273     -0.3480
      2  C1         2.8610   52.5900   30.1390 C.3   273  INH273      0.2920
      3  O5         1.6510   51.7700   30.2210 O.3   273  INH273     -0.3480
      4  C5         0.4190   52.5030   29.8350 C.3   273  INH273      0.1790
      5  C4         0.5420   53.0250   28.3600 C.3   273  INH273      0.1800
      6  C3         1.7980   53.9450   28.2980 C.3   273  INH273      0.1830
      7  C2         3.0570   53.1060   28.6840 C.3   273  INH273      0.2040
      8  C6        -0.7670   51.5620   29.9990 C.3   273  INH273      0.1980
      9  O6        -0.3210   50.2380   29.7170 O.3   273  INH273     -0.3980
     10  H11        0.6270   50.2300   29.6620 H     273  INH273      0.2090
     11  O4         0.7050   51.9300   27.4420 O.3   273  INH273     -0.3900
     12  H10       -0.0900   51.8230   26.9320 H     273  INH273      0.2100
     13  O3         1.9560   54.4350   26.9590 O.3   273  INH273     -0.3900
     14  H9         2.2350   53.7250   26.3930 H     273  INH273      0.2100
     15  O2         4.2260   53.9200   28.6430 O.3   273  INH273     -0.3880
     16  H8         4.3060   54.3150   27.7820 H     273  INH273      0.2100
     17  C10        4.1240   51.2890   31.8640 C.3   273  INH273      0.1870
     18  C9         4.1500   49.7330   31.8050 C.3   273  INH273      0.1830
     19  C8         4.2620   49.2190   33.2680 C.3   273  INH273      0.2040
     20  C7         5.5830   49.7580   33.8790 C.3   273  INH273      0.2880
     21  O10        5.6150   51.2300   33.8690 O.3   273  INH273     -0.3490
     22  C11        5.4720   51.8080   32.5160 C.3   273  INH273      0.1800
     23  O9         2.9260   49.2450   31.2440 O.3   273  INH273     -0.3900
     24  H21        3.1130   48.5080   30.6760 H     273  INH273      0.2100
     25  O8         4.2850   47.7830   33.2840 O.3   273  INH273     -0.3880
     26  H20        5.1270   47.4750   32.9670 H     273  INH273      0.2100
     27  O7         5.7160   49.3180   35.1970 O.3   273  INH273     -0.3690
     28  H19        5.1110   49.7950   35.7520 H     273  INH273      0.2120
     29  C12        5.5580   53.3370   32.6530 C.3   273  INH273      0.1980
     30  O11        6.9150   53.8150   32.6470 O.3   273  INH273     -0.3980
     31  H22        6.9380   54.6970   32.2960 H     273  INH273      0.2090
@<TRIPOS>BOND
     1    14    13    1
     2    12    11    1
     3    13     6    1
     4    11     5    1
     5    16    15    1
     6     6     5    1
     7     6     7    1
     8     5     4    1
     9    15     7    1
    10     7     2    1
    11    10     9    1
    12     9     8    1
    13     4     8    1
    14     4     3    1
    15     2     3    1
    16     2     1    1
    17     1    17    1
    18    24    23    1
    19    23    18    1
    20    18    17    1
    21    18    19    1
    22    17    22    1
    23    31    30    1
    24    22    29    1
    25    22    21    1
    26    30    29    1
    27    26    25    1
    28    19    25    1
    29    19    20    1
    30    21    20    1
    31    20    27    1
    32    27    28    1
