@<TRIPOS>MOLECULE
/tmp/ewbell/vina_1w6o_1w6o_lig/vina/vina1.pdbqt
 31 32 0 0 0
SMALL
GASTEIGER

@<TRIPOS>ATOM
      1  O1         1.9480   54.8350   27.1770 O.3   273  INH273     -0.3480
      2  C1         0.9730   54.4190   26.2470 C.3   273  INH273      0.2920
      3  O5         0.6790   52.9970   26.4250 O.3   273  INH273     -0.3480
      4  C5        -0.3370   52.4850   25.4700 C.3   273  INH273      0.1790
      5  C4         0.1600   52.6870   23.9950 C.3   273  INH273      0.1800
      6  C3         0.4140   54.2120   23.7970 C.3   273  INH273      0.1830
      7  C2         1.5100   54.6760   24.8080 C.3   273  INH273      0.2040
      8  C6        -0.5850   51.0150   25.7800 C.3   273  INH273      0.1980
      9  O6         0.6800   50.3800   25.9470 O.3   273  INH273     -0.3980
     10  H11        1.1440   50.3810   25.1190 H     273  INH273      0.2090
     11  O4         1.3820   51.9640   23.7640 O.3   273  INH273     -0.3900
     12  H10        2.0050   52.1660   24.4520 H     273  INH273      0.2100
     13  O3         0.8850   54.4410   22.4620 O.3   273  INH273     -0.3900
     14  H9         1.8180   54.6180   22.4810 H     273  INH273      0.2100
     15  O2         1.7630   56.0700   24.6580 O.3   273  INH273     -0.3880
     16  H8         1.3420   56.3850   23.8670 H     273  INH273      0.2100
     17  C10        2.0330   54.2230   28.5050 C.3   273  INH273      0.1870
     18  C9         3.3540   53.4070   28.6230 C.3   273  INH273      0.1830
     19  C8         3.3720   52.7590   30.0360 C.3   273  INH273      0.2040
     20  C7         3.3410   53.8930   31.0970 C.3   273  INH273      0.2880
     21  O10        2.1380   54.7290   30.9510 O.3   273  INH273     -0.3490
     22  C11        2.0190   55.3530   29.6170 C.3   273  INH273      0.1800
     23  O9         3.3720   52.3620   27.6440 O.3   273  INH273     -0.3900
     24  H21        3.6840   51.5600   28.0450 H     273  INH273      0.2100
     25  O8         4.5690   51.9850   30.2080 O.3   273  INH273     -0.3880
     26  H20        5.3230   52.5630   30.2170 H     273  INH273      0.2100
     27  O7         3.3530   53.3480   32.3810 O.3   273  INH273     -0.3690
     28  H19        3.9760   52.6320   32.4150 H     273  INH273      0.2120
     29  C12        0.7470   56.2170   29.6190 C.3   273  INH273      0.1980
     30  O11        0.6360   57.0370   28.4420 O.3   273  INH273     -0.3980
     31  H22        0.7040   56.4900   27.6690 H     273  INH273      0.2090
@<TRIPOS>BOND
     1    13    14    1
     2    13     6    1
     3    11     5    1
     4    11    12    1
     5     6     5    1
     6     6     7    1
     7    16    15    1
     8     5     4    1
     9    15     7    1
    10     7     2    1
    11    10     9    1
    12     4     8    1
    13     4     3    1
    14     8     9    1
    15     2     3    1
    16     2     1    1
    17     1    17    1
    18    23    24    1
    19    23    18    1
    20    31    30    1
    21    30    29    1
    22    17    18    1
    23    17    22    1
    24    18    19    1
    25    22    29    1
    26    22    21    1
    27    19    25    1
    28    19    20    1
    29    25    26    1
    30    21    20    1
    31    20    27    1
    32    27    28    1
