@<TRIPOS>MOLECULE
/tmp/ewbell/vina_1w6o_1w6o_lig/vina/vina3.pdbqt
 31 32 0 0 0
SMALL
GASTEIGER

@<TRIPOS>ATOM
      1  O1         5.7080   52.5060   32.6990 O.3   273  INH273     -0.3480
      2  C1         4.4490   53.1110   32.5010 C.3   273  INH273      0.2920
      3  O5         4.2370   53.3830   31.0790 O.3   273  INH273     -0.3480
      4  C5         2.9300   54.0300   30.7950 C.3   273  INH273      0.1790
      5  C4         2.8270   55.3950   31.5620 C.3   273  INH273      0.1800
      6  C3         2.9950   55.0870   33.0810 C.3   273  INH273      0.1830
      7  C2         4.3970   54.4390   33.3110 C.3   273  INH273      0.2040
      8  C6         2.8110   54.2240   29.2900 C.3   273  INH273      0.1980
      9  O6         4.1210   54.1700   28.7330 O.3   273  INH273     -0.3980
     10  H11        4.4920   53.3080   28.8820 H     273  INH273      0.2090
     11  O4         3.8640   56.2990   31.1400 O.3   273  INH273     -0.3900
     12  H10        4.3060   56.6530   31.9030 H     273  INH273      0.2100
     13  O3         2.9210   56.3140   33.8210 O.3   273  INH273     -0.3900
     14  H9         3.5910   56.9110   33.5110 H     273  INH273      0.2100
     15  O2         4.5820   54.1380   34.6920 O.3   273  INH273     -0.3880
     16  H8         5.0190   54.8650   35.1190 H     273  INH273      0.2100
     17  C10        5.8180   51.0800   33.0170 C.3   273  INH273      0.1870
     18  C9         4.9370   50.7510   34.2580 C.3   273  INH273      0.1830
     19  C8         5.1170   49.2370   34.5630 C.3   273  INH273      0.2040
     20  C7         4.6370   48.4260   33.3290 C.3   273  INH273      0.2880
     21  O10        5.4030   48.7820   32.1230 O.3   273  INH273     -0.3490
     22  C11        5.3210   50.2180   31.7820 C.3   273  INH273      0.1800
     23  O9         5.3900   51.5000   35.3910 O.3   273  INH273     -0.3900
     24  H21        4.7930   52.2210   35.5500 H     273  INH273      0.2100
     25  O8         4.3310   48.8670   35.7060 O.3   273  INH273     -0.3880
     26  H20        4.5400   47.9760   35.9610 H     273  INH273      0.2100
     27  O7         4.7880   47.0590   33.5660 O.3   273  INH273     -0.3690
     28  H19        4.1110   46.5820   33.1020 H     273  INH273      0.2120
     29  C12        6.1320   50.4380   30.4950 C.3   273  INH273      0.1980
     30  O11        5.6210   51.5230   29.7000 O.3   273  INH273     -0.3980
     31  H22        6.2210   52.2570   29.7450 H     273  INH273      0.2090
@<TRIPOS>BOND
     1     9    10    1
     2     9     8    1
     3     8     4    1
     4    30    31    1
     5    30    29    1
     6    29    22    1
     7     4     3    1
     8     4     5    1
     9     3     2    1
    10    11     5    1
    11    11    12    1
    12     5     6    1
    13    22    21    1
    14    22    17    1
    15    21    20    1
    16     2     1    1
    17     2     7    1
    18     1    17    1
    19    17    18    1
    20     6     7    1
    21     6    13    1
    22    28    27    1
    23     7    15    1
    24    20    27    1
    25    20    19    1
    26    14    13    1
    27    18    19    1
    28    18    23    1
    29    19    25    1
    30    15    16    1
    31    23    24    1
    32    25    26    1
