@<TRIPOS>MOLECULE
./ligand/2psv_lig.pdb
 64 66 0 0 0
SMALL
GASTEIGER

@<TRIPOS>ATOM
      1  O1        23.6790   25.1250   11.5560 O.2   203  INH203     -0.2758
      2  C1        22.9250   25.7410   10.8070 C.2   203  INH203      0.2132
      3  N1        22.9470   25.5900    9.4790 N.am  203  INH203     -0.3184
      4  C2        23.8490   24.6740    8.8030 C.3   203  INH203      0.0001
      5  C3        21.9070   26.6880   11.4080 C.3   203  INH203      0.0322
      6  C4        22.6170   27.7090   12.2780 C.3   203  INH203      0.0322
      7  C5        21.5230   28.6390   12.7800 C.2   203  INH203      0.2138
      8  O2        21.3950   29.7300   12.2460 O.2   203  INH203     -0.2758
      9  N2        20.7320   28.2140   13.7660 N.am  203  INH203     -0.3096
     10  C6        19.6360   28.9880   14.3450 C.3   203  INH203      0.0542
     11  C7        18.3700   28.1310   14.2540 C.3   203  INH203     -0.0067
     12  C8        18.1040   27.7700   12.7980 C.ar  203  INH203     -0.0455
     13  C9        17.5650   28.7160   11.9310 C.ar  203  INH203     -0.0585
     14  C10       17.3200   28.3920   10.5950 C.ar  203  INH203     -0.0615
     15  C11       17.6200   27.1180   10.1230 C.ar  203  INH203     -0.0617
     16  C12       18.1490   26.1710   10.9900 C.ar  203  INH203     -0.0615
     17  C13       18.3920   26.4970   12.3180 C.ar  203  INH203     -0.0585
     18  C14       20.0070   29.3580   15.7910 C.3   203  INH203      0.0881
     19  O3        20.0510   28.1880   16.6180 O.3   203  INH203     -0.3886
     20  C15       19.0580   30.4050   16.3950 C.3   203  INH203      0.0484
     21  N3        19.3530   31.6990   15.7310 N.3   203  INH203     -0.1710
     22  C16       20.0950   32.6440   16.5880 C.3   203  INH203      0.0235
     23  C17       21.5440   32.1580   16.6800 C.3   203  INH203     -0.0266
     24  C18       22.4220   32.3340   15.4410 C.3   203  INH203     -0.0487
     25  C19       22.6320   33.2310   16.6520 C.3   203  INH203     -0.0487
     26  S1        18.0870   32.3400   14.9480 S.O2  203  INH203      0.0941
     27  O4        18.6330   33.3030   14.0350 O.2   203  INH203     -0.1499
     28  O5        17.4160   31.2880   14.2590 O.2   203  INH203     -0.1499
     29  C20       16.9610   33.1090   15.9000 C.ar  203  INH203      0.2579
     30  O6        16.7390   34.4600   15.9210 O.2   203  INH203     -0.4451
     31  C21       15.6930   34.6580   16.8190 C.ar  203  INH203      0.0943
     32  C22       15.2890   33.4230   17.3250 C.ar  203  INH203     -0.0219
     33  C23       16.1050   32.4180   16.7070 C.ar  203  INH203      0.0038
     34  H1        22.3140   26.1320    8.9260 H     203  INH203      0.1484
     35  H2        23.6800   24.7270    7.7170 H     203  INH203      0.0426
     36  H3        23.6610   23.6490    9.1540 H     203  INH203      0.0426
     37  H4        24.8890   24.9530    9.0260 H     203  INH203      0.0426
     38  H5        21.1930   26.1180   12.0200 H     203  INH203      0.0363
     39  H6        21.3670   27.2060   10.6010 H     203  INH203      0.0363
     40  H7        23.3580   28.2690   11.6880 H     203  INH203      0.0363
     41  H8        23.1190   27.2130   13.1220 H     203  INH203      0.0363
     42  H9        20.9010   27.3000   14.1360 H     203  INH203      0.1491
     43  H10       19.4850   29.9130   13.7690 H     203  INH203      0.0527
     44  H11       17.5150   28.6960   14.6530 H     203  INH203      0.0332
     45  H12       18.5070   27.2110   14.8410 H     203  INH203      0.0332
     46  H13       17.3340   29.7110   12.2950 H     203  INH203      0.0620
     47  H14       16.8960   29.1320    9.9260 H     203  INH203      0.0618
     48  H15       17.4420   26.8660    9.0840 H     203  INH203      0.0618
     49  H16       18.3730   25.1740   10.6290 H     203  INH203      0.0618
     50  H17       18.8100   25.7530   12.9860 H     203  INH203      0.0620
     51  H18       21.0150   29.7970   15.7710 H     203  INH203      0.0625
     52  H19       19.1890   27.7910   16.6500 H     203  INH203      0.2099
     53  H20       19.2300   30.4890   17.4780 H     203  INH203      0.0470
     54  H21       18.0130   30.1170   16.2110 H     203  INH203      0.0470
     55  H22       19.6450   32.6710   17.5910 H     203  INH203      0.0447
     56  H23       20.0660   33.6510   16.1460 H     203  INH203      0.0447
     57  H24       21.6280   31.2680   17.3210 H     203  INH203      0.0314
     58  H25       21.9920   32.7490   14.5170 H     203  INH203      0.0268
     59  H26       23.1720   31.5710   15.1860 H     203  INH203      0.0268
     60  H27       23.5340   33.1160   17.2710 H     203  INH203      0.0268
     61  H28       22.3540   34.2940   16.6030 H     203  INH203      0.0268
     62  H29       15.2600   35.6220   17.0830 H     203  INH203      0.1030
     63  H30       14.4990   33.2530   18.0550 H     203  INH203      0.0650
     64  H31       16.0530   31.3400   16.8510 H     203  INH203      0.0670
@<TRIPOS>BOND
     1     1     2    2
     2     2     5    1
     3     2     3   am
     4     3    34    1
     5     3     4    1
     6     4    37    1
     7     4    36    1
     8     4    35    1
     9     5    39    1
    10     5    38    1
    11     5     6    1
    12     6    41    1
    13     6    40    1
    14     6     7    1
    15     7     9   am
    16     7     8    2
    17     9    42    1
    18     9    10    1
    19    10    43    1
    20    10    18    1
    21    10    11    1
    22    11    45    1
    23    11    44    1
    24    11    12    1
    25    12    17   ar
    26    12    13   ar
    27    13    46    1
    28    13    14   ar
    29    14    47    1
    30    14    15   ar
    31    15    48    1
    32    15    16   ar
    33    16    49    1
    34    16    17   ar
    35    17    50    1
    36    18    51    1
    37    18    20    1
    38    18    19    1
    39    19    52    1
    40    20    54    1
    41    20    53    1
    42    20    21    1
    43    21    26    1
    44    21    22    1
    45    22    56    1
    46    22    55    1
    47    22    23    1
    48    23    57    1
    49    23    25    1
    50    23    24    1
    51    24    59    1
    52    24    58    1
    53    24    25    1
    54    25    61    1
    55    25    60    1
    56    26    29    1
    57    26    28    2
    58    26    27    2
    59    29    33   ar
    60    29    30   ar
    61    30    31   ar
    62    31    62    1
    63    31    32   ar
    64    32    63    1
    65    32    33   ar
    66    33    64    1
