@<TRIPOS>MOLECULE
/tmp/ewbell/vina_2psv_2psv_lig/vina/vina5.pdbqt
 36 38 0 0 0
SMALL
GASTEIGER

@<TRIPOS>ATOM
      1  C6        18.5090   32.2310   14.8360 C.3   203  INH203      0.1180
      2  N2        18.1200   31.3360   13.7480 N.am  203  INH203     -0.3540
      3  C5        18.1010   30.0050   13.8300 C.2   203  INH203      0.2180
      4  O2        18.4120   29.3950   14.8410 O.2   203  INH203     -0.2740
      5  H9        17.8480   31.7520   12.8790 H     203  INH203      0.1630
      6  C4        17.7000   29.2100   12.5970 C.3   203  INH203      0.1120
      7  C3        18.4530   27.8960   12.7050 C.3   203  INH203      0.1120
      8  C1        19.3600   27.7340   11.5040 C.2   203  INH203      0.2170
      9  O1        18.8590   27.4940   10.4090 O.2   203  INH203     -0.2740
     10  N1        20.6770   27.8850   11.6770 N.am  203  INH203     -0.3650
     11  H1        21.2760   27.8100   10.8780 H     203  INH203      0.1610
     12  C2        21.2790   28.1540   12.9710 C.3   203  INH203      0.1490
     13  C14       17.2710   33.0270   15.2820 C.3   203  INH203      0.1550
     14  C15       17.1510   33.1250   16.8120 C.3   203  INH203      0.1410
     15  N3        17.5180   34.5120   17.1920 N.3   203  INH203     -0.2020
     16  S1        16.2730   35.3940   17.7380 S.O2  203  INH203      0.2660
     17  O5        15.8230   34.8140   18.9610 O.2   203  INH203     -0.2040
     18  O4        15.2630   35.3260   16.7210 O.2   203  INH203     -0.2040
     19  C20       16.5990   36.9970   18.0390 C.ar  203  INH203      0.1840
     20  C23       16.7340   37.9070   17.0310 C.ar  203  INH203      0.0530
     21  C22       17.0360   39.1450   17.6910 C.ar  203  INH203      0.0280
     22  C21       17.0930   38.8850   19.0600 C.ar  203  INH203      0.1430
     23  O6        16.8230   37.5360   19.2770 O.2   203  INH203     -0.3100
     24  C16       18.7410   34.5920   18.0130 C.3   203  INH203      0.1120
     25  C17       19.7140   35.5460   17.3140 C.3   203  INH203     -0.0000
     26  C19       21.1390   35.6000   17.8650 C.3   203  INH203      0.0060
     27  C18       20.1900   36.7650   18.1060 C.3   203  INH203      0.0060
     28  O3        17.2720   34.3360   14.6970 O.3   203  INH203     -0.3920
     29  H19       17.4360   34.9830   15.3720 H     203  INH203      0.2100
     30  C7        19.6380   33.1250   14.3150 C.3   203  INH203      0.0660
     31  C8        20.9380   32.7640   15.0210 C.ar  203  INH203     -0.0560
     32  C13       20.9320   32.3340   16.3430 C.ar  203  INH203      0.0070
     33  C12       22.1200   32.0050   16.9850 C.ar  203  INH203      0.0010
     34  C11       23.3300   32.1090   16.3120 C.ar  203  INH203      0.0000
     35  C10       23.3460   32.5300   14.9850 C.ar  203  INH203      0.0010
     36  C9        22.1510   32.8590   14.3440 C.ar  203  INH203      0.0070
@<TRIPOS>BOND
     1     9     8    2
     2    11    10    1
     3     8    10   am
     4     8     7    1
     5    10    12    1
     6     6     7    1
     7     6     3    1
     8     5     2    1
     9     2     3   am
    10     2     1    1
    11     3     4    2
    12    30     1    1
    13    30    31    1
    14    36    35   ar
    15    36    31   ar
    16    28    13    1
    17    28    29    1
    18     1    13    1
    19    35    34   ar
    20    31    32   ar
    21    13    14    1
    22    34    33   ar
    23    32    33   ar
    24    18    16    2
    25    14    15    1
    26    20    21   ar
    27    20    19   ar
    28    15    16    1
    29    15    24    1
    30    25    26    1
    31    25    24    1
    32    25    27    1
    33    21    22   ar
    34    16    19    1
    35    16    17    2
    36    26    27    1
    37    19    23   ar
    38    22    23   ar
