@<TRIPOS>MOLECULE
/tmp/ewbell/vina_2psv_2psv_lig/vina/vina1.pdbqt
 36 38 0 0 0
SMALL
GASTEIGER

@<TRIPOS>ATOM
      1  C6        18.5250   30.5340   15.3590 C.3   203  INH203      0.1180
      2  N2        18.2440   29.2400   14.7410 N.am  203  INH203     -0.3540
      3  C5        18.0160   29.0540   13.4400 C.2   203  INH203      0.2180
      4  O2        18.0210   29.9650   12.6260 O.2   203  INH203     -0.2740
      5  H9        18.2200   28.4360   15.3360 H     203  INH203      0.1630
      6  C4        17.7070   27.6470   12.9530 C.3   203  INH203      0.1120
      7  C3        18.4360   27.5120   11.6290 C.3   203  INH203      0.1120
      8  C1        18.2810   26.0980   11.1090 C.2   203  INH203      0.2170
      9  O1        18.2570   25.1690   11.9120 O.2   203  INH203     -0.2740
     10  N1        18.1490   25.9160    9.7920 N.am  203  INH203     -0.3650
     11  H1        18.0140   24.9850    9.4490 H     203  INH203      0.1610
     12  C2        18.1900   27.0070    8.8340 C.3   203  INH203      0.1490
     13  C14       19.9050   30.4650   16.0350 C.3   203  INH203      0.1550
     14  C15       20.4230   31.8470   16.4650 C.3   203  INH203      0.1410
     15  N3        21.8880   31.8580   16.2320 N.3   203  INH203     -0.2020
     16  S1        22.3050   31.9560   14.6690 S.O2  203  INH203      0.2660
     17  O5        23.6800   32.3280   14.6010 O.2   203  INH203     -0.2040
     18  O4        21.4580   32.9630   14.0960 O.2   203  INH203     -0.2040
     19  C20       22.1240   30.5600   13.7830 C.ar  203  INH203      0.1840
     20  C23       21.4290   30.5360   12.6080 C.ar  203  INH203      0.0530
     21  C22       21.4770   29.1680   12.1800 C.ar  203  INH203      0.0280
     22  C21       22.1750   28.4510   13.1510 C.ar  203  INH203      0.1430
     23  O6        22.5770   29.3250   14.1590 O.2   203  INH203     -0.3100
     24  C16       22.6190   32.7760   17.1270 C.3   203  INH203      0.1120
     25  C17       21.6570   33.8900   17.5440 C.3   203  INH203     -0.0000
     26  C19       22.0790   35.3220   17.2140 C.3   203  INH203      0.0060
     27  C18       22.1180   34.8350   18.6550 C.3   203  INH203      0.0060
     28  O3        19.8760   29.5720   17.1560 O.3   203  INH203     -0.3920
     29  H19       20.0490   28.6870   16.8600 H     203  INH203      0.2100
     30  C7        17.3910   30.8290   16.3450 C.3   203  INH203      0.0660
     31  C8        16.8280   32.2170   16.0710 C.ar  203  INH203     -0.0560
     32  C13       15.8340   32.7530   16.8820 C.ar  203  INH203      0.0070
     33  C12       15.3220   34.0200   16.6300 C.ar  203  INH203      0.0010
     34  C11       15.7950   34.7640   15.5570 C.ar  203  INH203      0.0000
     35  C10       16.7960   34.2400   14.7440 C.ar  203  INH203      0.0010
     36  C9        17.3080   32.9670   15.0010 C.ar  203  INH203      0.0070
@<TRIPOS>BOND
     1    12    10    1
     2    11    10    1
     3    10     8   am
     4     8     7    1
     5     8     9    2
     6     7     6    1
     7    21    20   ar
     8    21    22   ar
     9    20    19   ar
    10     4     3    2
    11     6     3    1
    12    22    23   ar
    13     3     2   am
    14    19    23   ar
    15    19    16    1
    16    18    16    2
    17    17    16    2
    18    16    15    1
    19     2     5    1
    20     2     1    1
    21    35    36   ar
    22    35    34   ar
    23    36    31   ar
    24     1    13    1
    25     1    30    1
    26    34    33   ar
    27    13    14    1
    28    13    28    1
    29    31    30    1
    30    31    32   ar
    31    15    14    1
    32    15    24    1
    33    33    32   ar
    34    29    28    1
    35    24    25    1
    36    26    25    1
    37    26    27    1
    38    25    27    1
