@<TRIPOS>MOLECULE
/tmp/ewbell/vina_2psv_2psv_lig/vina/vina4.pdbqt
 36 38 0 0 0
SMALL
GASTEIGER

@<TRIPOS>ATOM
      1  C6        21.3010   32.3570   15.8820 C.3   203  INH203      0.1180
      2  N2        19.9380   31.9190   15.5890 N.am  203  INH203     -0.3540
      3  C5        19.3370   30.8740   16.1600 C.2   203  INH203      0.2180
      4  O2        19.8780   30.1710   16.9990 O.2   203  INH203     -0.2740
      5  H9        19.4180   32.4400   14.9100 H     203  INH203      0.1630
      6  C4        17.9220   30.5260   15.7240 C.3   203  INH203      0.1120
      7  C3        17.9910   30.3800   14.2150 C.3   203  INH203      0.1120
      8  C1        18.2620   28.9330   13.8590 C.2   203  INH203      0.2170
      9  O1        18.9500   28.2530   14.6160 O.2   203  INH203     -0.2740
     10  N1        17.7150   28.4400   12.7430 N.am  203  INH203     -0.3650
     11  H1        17.8660   27.4750   12.5230 H     203  INH203      0.1610
     12  C2        16.9120   29.2400   11.8360 C.3   203  INH203      0.1490
     13  C14       21.2330   33.6840   16.6570 C.3   203  INH203      0.1550
     14  C15       19.9050   34.4290   16.4400 C.3   203  INH203      0.1410
     15  N3        19.1680   34.3950   17.7270 N.3   203  INH203     -0.2020
     16  S1        19.4040   35.7030   18.6540 S.O2  203  INH203      0.2660
     17  O5        20.1850   35.3110   19.7810 O.2   203  INH203     -0.2040
     18  O4        18.0990   36.1490   19.0490 O.2   203  INH203     -0.2040
     19  C20       20.1880   36.9750   17.9240 C.ar  203  INH203      0.1840
     20  C23       21.5330   37.1660   18.0570 C.ar  203  INH203      0.0530
     21  C22       21.8090   38.3640   17.3170 C.ar  203  INH203      0.0280
     22  C21       20.5960   38.8320   16.8130 C.ar  203  INH203      0.1430
     23  O6        19.5780   37.9620   17.1990 O.2   203  INH203     -0.3100
     24  C16       17.7590   33.9800   17.5870 C.3   203  INH203      0.1120
     25  C17       17.3210   34.2840   16.1520 C.3   203  INH203     -0.0000
     26  C19       16.0800   35.1610   15.9830 C.3   203  INH203      0.0060
     27  C18       16.0010   33.6720   15.6780 C.3   203  INH203      0.0060
     28  O3        21.4600   33.4670   18.0560 O.3   203  INH203     -0.3920
     29  H19       20.6270   33.3540   18.4970 H     203  INH203      0.2100
     30  C7        22.0410   32.4830   14.5480 C.3   203  INH203      0.0660
     31  C8        21.9110   31.1790   13.7710 C.ar  203  INH203     -0.0560
     32  C13       22.4770   30.0040   14.2550 C.ar  203  INH203      0.0070
     33  C12       22.3560   28.8170   13.5440 C.ar  203  INH203      0.0010
     34  C11       21.6720   28.7910   12.3360 C.ar  203  INH203      0.0000
     35  C10       21.0940   29.9590   11.8470 C.ar  203  INH203      0.0010
     36  C9        21.2170   31.1500   12.5640 C.ar  203  INH203      0.0070
@<TRIPOS>BOND
     1    12    10    1
     2    35    34   ar
     3    35    36   ar
     4    34    33   ar
     5    11    10    1
     6    36    31   ar
     7    10     8   am
     8    33    32   ar
     9    31    32   ar
    10    31    30    1
    11     8     7    1
    12     8     9    2
    13     7     6    1
    14    30     1    1
    15     5     2    1
    16     2     1    1
    17     2     3   am
    18    27    26    1
    19    27    25    1
    20     6     3    1
    21     1    13    1
    22    26    25    1
    23    25    24    1
    24     3     4    2
    25    14    13    1
    26    14    15    1
    27    13    28    1
    28    22    23   ar
    29    22    21   ar
    30    23    19   ar
    31    21    20   ar
    32    24    15    1
    33    15    16    1
    34    19    20   ar
    35    19    16    1
    36    28    29    1
    37    16    18    2
    38    16    17    2
