@<TRIPOS>MOLECULE
/tmp/ewbell/vina_2psv_2psv_lig/vina/vina2.pdbqt
 36 38 0 0 0
SMALL
GASTEIGER

@<TRIPOS>ATOM
      1  C6        18.4440   31.9590   14.9150 C.3   203  INH203      0.1180
      2  N2        18.8660   30.7330   14.2420 N.am  203  INH203     -0.3540
      3  C5        19.4450   30.6870   13.0420 C.2   203  INH203      0.2180
      4  O2        19.6830   31.6850   12.3780 O.2   203  INH203     -0.2740
      5  H9        18.7100   29.8650   14.7150 H     203  INH203      0.1630
      6  C4        19.8000   29.3270   12.4600 C.3   203  INH203      0.1120
      7  C3        18.4750   28.7020   12.0650 C.3   203  INH203      0.1120
      8  C1        18.1620   27.5510   12.9970 C.2   203  INH203      0.2170
      9  O1        17.7740   27.7970   14.1360 O.2   203  INH203     -0.2740
     10  N1        18.2930   26.3040   12.5340 N.am  203  INH203     -0.3650
     11  H1        18.0550   25.5420   13.1380 H     203  INH203      0.1610
     12  C2        18.7640   26.0030   11.1930 C.3   203  INH203      0.1490
     13  C14       19.5350   32.3690   15.9190 C.3   203  INH203      0.1550
     14  C15       20.0960   33.7730   15.6410 C.3   203  INH203      0.1410
     15  N3        21.4260   33.8500   16.2950 N.3   203  INH203     -0.2020
     16  S1        21.4930   34.9020   17.5260 S.O2  203  INH203      0.2660
     17  O5        22.3560   35.9720   17.1460 O.2   203  INH203     -0.2040
     18  O4        22.0200   34.1710   18.6420 O.2   203  INH203     -0.2040
     19  C20       20.0410   35.5730   17.9840 C.ar  203  INH203      0.1840
     20  C23       19.7340   36.8760   17.7210 C.ar  203  INH203      0.0530
     21  C22       18.4330   37.0700   18.2940 C.ar  203  INH203      0.0280
     22  C21       18.0590   35.8690   18.8950 C.ar  203  INH203      0.1430
     23  O6        19.0710   34.9310   18.7030 O.2   203  INH203     -0.3100
     24  C16       22.0200   32.5290   16.5760 C.3   203  INH203      0.1120
     25  C17       23.0870   32.2570   15.5120 C.3   203  INH203     -0.0000
     26  C19       22.7080   32.5650   14.0640 C.3   203  INH203      0.0060
     27  C18       22.8200   31.1200   14.5260 C.3   203  INH203      0.0060
     28  O3        19.0450   32.2840   17.2630 O.3   203  INH203     -0.3920
     29  H19       19.7650   32.0850   17.8490 H     203  INH203      0.2100
     30  C7        17.0950   31.6750   15.5830 C.3   203  INH203      0.0660
     31  C8        16.4310   32.9920   15.9660 C.ar  203  INH203     -0.0560
     32  C13       16.5620   34.1150   15.1560 C.ar  203  INH203      0.0070
     33  C12       15.9550   35.3140   15.5080 C.ar  203  INH203      0.0010
     34  C11       15.2140   35.4050   16.6790 C.ar  203  INH203      0.0000
     35  C10       15.0700   34.2850   17.4920 C.ar  203  INH203      0.0010
     36  C9        15.6800   33.0810   17.1350 C.ar  203  INH203      0.0070
@<TRIPOS>BOND
     1    12    10    1
     2     7     6    1
     3     7     8    1
     4     4     3    2
     5     6     3    1
     6    10     8   am
     7    10    11    1
     8     8     9    2
     9     3     2   am
    10    26    27    1
    11    26    25    1
    12     2     5    1
    13     2     1    1
    14    27    25    1
    15     1    30    1
    16     1    13    1
    17    32    33   ar
    18    32    31   ar
    19    33    34   ar
    20    25    24    1
    21    30    31    1
    22    14    13    1
    23    14    15    1
    24    13    28    1
    25    31    36   ar
    26    15    24    1
    27    15    16    1
    28    34    35   ar
    29    36    35   ar
    30    17    16    2
    31    28    29    1
    32    16    19    1
    33    16    18    2
    34    20    19   ar
    35    20    21   ar
    36    19    23   ar
    37    21    22   ar
    38    23    22   ar
