@<TRIPOS>MOLECULE
/tmp/ewbell/vina_2psv_2psv_lig/vina/vina3.pdbqt
 36 38 0 0 0
SMALL
GASTEIGER

@<TRIPOS>ATOM
      1  C6        18.4960   32.3880   14.8940 C.3   203  INH203      0.1180
      2  N2        17.4400   33.3210   15.2800 N.am  203  INH203     -0.3540
      3  C5        16.3540   32.9910   15.9800 C.2   203  INH203      0.2180
      4  O2        16.1340   31.8560   16.3740 O.2   203  INH203     -0.2740
      5  H9        17.5380   34.2770   14.9990 H     203  INH203      0.1630
      6  C4        15.3280   34.0740   16.2780 C.3   203  INH203      0.1120
      7  C3        16.1280   35.3540   16.4290 C.3   203  INH203      0.1120
      8  C1        16.1150   35.7890   17.8800 C.2   203  INH203      0.2170
      9  O1        15.8640   34.9570   18.7480 O.2   203  INH203     -0.2740
     10  N1        16.4050   37.0630   18.1640 N.am  203  INH203     -0.3650
     11  H1        16.4280   37.3440   19.1240 H     203  INH203      0.1610
     12  C2        16.6880   38.0570   17.1430 C.3   203  INH203      0.1490
     13  C14       17.8430   31.1100   14.3400 C.3   203  INH203      0.1550
     14  C15       18.3100   30.7790   12.9130 C.3   203  INH203      0.1410
     15  N3        18.7960   29.3770   12.9260 N.3   203  INH203     -0.2020
     16  S1        17.7060   28.2990   12.4010 S.O2  203  INH203      0.2660
     17  O5        16.5480   29.0140   11.9740 O.2   203  INH203     -0.2040
     18  O4        17.4160   27.4510   13.5220 O.2   203  INH203     -0.2040
     19  C20       18.1920   27.3360   11.1350 C.ar  203  INH203      0.1840
     20  C23       18.7660   26.1150   11.3360 C.ar  203  INH203      0.0530
     21  C22       19.0630   25.6260   10.0200 C.ar  203  INH203      0.0280
     22  C21       18.6730   26.6100    9.1120 C.ar  203  INH203      0.1430
     23  O6        18.1300   27.6850    9.8130 O.2   203  INH203     -0.3100
     24  C16       20.1480   29.2190   12.3560 C.3   203  INH203      0.1120
     25  C17       20.9450   28.2990   13.2850 C.3   203  INH203     -0.0000
     26  C19       21.0680   28.7360   14.7450 C.3   203  INH203      0.0060
     27  C18       22.2750   28.8290   13.8230 C.3   203  INH203      0.0060
     28  O3        18.0820   29.9990   15.2140 O.3   203  INH203     -0.3920
     29  H19       18.7220   30.2450   15.8700 H     203  INH203      0.2100
     30  C7        19.3560   32.1290   16.1340 C.3   203  INH203      0.0660
     31  C8        20.8290   32.2640   15.7680 C.ar  203  INH203     -0.0560
     32  C13       21.2190   32.4270   14.4430 C.ar  203  INH203      0.0070
     33  C12       22.5620   32.5500   14.1120 C.ar  203  INH203      0.0010
     34  C11       23.5330   32.5040   15.1040 C.ar  203  INH203      0.0000
     35  C10       23.1530   32.3500   16.4340 C.ar  203  INH203      0.0010
     36  C9        21.8020   32.2280   16.7620 C.ar  203  INH203      0.0070
@<TRIPOS>BOND
     1    22    23   ar
     2    22    21   ar
     3    23    19   ar
     4    21    20   ar
     5    19    20   ar
     6    19    16    1
     7    17    16    2
     8    24    15    1
     9    24    25    1
    10    16    15    1
    11    16    18    2
    12    14    15    1
    13    14    13    1
    14    25    27    1
    15    25    26    1
    16    27    26    1
    17    33    32   ar
    18    33    34   ar
    19    13     1    1
    20    13    28    1
    21    32    31   ar
    22     1     2    1
    23     1    30    1
    24     5     2    1
    25    34    35   ar
    26    28    29    1
    27     2     3   am
    28    31    30    1
    29    31    36   ar
    30     3     6    1
    31     3     4    2
    32     6     7    1
    33     7     8    1
    34    35    36   ar
    35    12    10    1
    36     8    10   am
    37     8     9    2
    38    10    11    1
