@<TRIPOS>MOLECULE
./ligand/2pgz_lig.pdb
 44 46 0 0 0
SMALL
GASTEIGER

@<TRIPOS>ATOM
      1  C1       -10.1970   19.6950   59.8270 C.3   1078  INH1078     0.0817
      2  O1       -10.0460   19.6920   61.2510 O.3   1078  INH1078    -0.4675
      3  C2       -11.1460   20.0610   62.0940 C.2   1078  INH1078     0.3190
      4  O2       -12.1900   20.4570   61.5530 O.2   1078  INH1078    -0.2502
      5  C3       -10.9530   19.9740   63.5840 C.3   1078  INH1078     0.1357
      6  C4       -11.8090   18.8400   64.1840 C.3   1078  INH1078    -0.0040
      7  N1       -13.1920   19.2620   64.2010 N.4   1078  INH1078     0.2382
      8  C5       -14.2670   18.3950   63.7470 C.3   1078  INH1078    -0.0426
      9  C6       -11.7340   18.8160   65.7220 C.3   1078  INH1078    -0.0037
     10  C7       -12.7430   19.8540   66.2540 C.3   1078  INH1078    -0.0044
     11  C8       -13.4590   20.4290   65.0160 C.3   1078  INH1078    -0.0172
     12  C9       -12.7230   21.6400   64.4100 C.3   1078  INH1078     0.0285
     13  C10      -11.2220   21.3460   64.2150 C.3   1078  INH1078     0.1266
     14  O3       -10.6710   22.2890   63.3320 O.3   1078  INH1078    -0.4566
     15  C11       -9.9120   23.3200   63.9810 C.2   1078  INH1078     0.3395
     16  O4        -9.7320   23.2940   65.1880 O.2   1078  INH1078    -0.2450
     17  C12       -9.4450   24.4380   63.1070 C.ar  1078  INH1078     0.0590
     18  C13       -8.5990   25.4320   63.5990 C.ar  1078  INH1078    -0.0478
     19  C14       -8.2190   26.4610   62.7490 C.ar  1078  INH1078    -0.0610
     20  C15       -8.6730   26.5090   61.4290 C.ar  1078  INH1078    -0.0617
     21  C16       -9.5300   25.5310   60.9420 C.ar  1078  INH1078    -0.0610
     22  C17       -9.9130   24.4880   61.7880 C.ar  1078  INH1078    -0.0478
     23  H1        -9.2520   19.3860   59.3570 H     1078  INH1078     0.0661
     24  H2       -10.4600   20.7080   59.4880 H     1078  INH1078     0.0661
     25  H3       -10.9950   18.9940   59.5410 H     1078  INH1078     0.0661
     26  H4        -9.8990   19.7230   63.7770 H     1078  INH1078     0.0507
     27  H5       -11.6100   17.8750   63.6940 H     1078  INH1078     0.0860
     28  H6       -13.1420   19.7680   63.3310 H     1078  INH1078     0.2036
     29  H7       -15.2290   18.9190   63.8490 H     1078  INH1078     0.0778
     30  H8       -14.2820   17.4790   64.3570 H     1078  INH1078     0.0778
     31  H9       -14.1040   18.1300   62.6920 H     1078  INH1078     0.0778
     32  H10      -10.7180   19.0770   66.0520 H     1078  INH1078     0.0322
     33  H11      -11.9950   17.8140   66.0950 H     1078  INH1078     0.0322
     34  H12      -12.2180   20.6540   66.7970 H     1078  INH1078     0.0322
     35  H13      -13.4690   19.3720   66.9250 H     1078  INH1078     0.0322
     36  H14      -14.5240   20.6510   65.1760 H     1078  INH1078     0.0852
     37  H15      -12.8340   22.5010   65.0850 H     1078  INH1078     0.0356
     38  H16      -13.1710   21.8790   63.4340 H     1078  INH1078     0.0356
     39  H17      -10.7210   21.4040   65.1930 H     1078  INH1078     0.0746
     40  H18       -8.2460   25.4010   64.6230 H     1078  INH1078     0.0626
     41  H19       -7.5600   27.2400   63.1150 H     1078  INH1078     0.0618
     42  H20       -8.3540   27.3160   60.7800 H     1078  INH1078     0.0618
     43  H21       -9.8960   25.5760   59.9230 H     1078  INH1078     0.0618
     44  H22      -10.5760   23.7130   61.4220 H     1078  INH1078     0.0626
@<TRIPOS>BOND
     1    23     1    1
     2    24     1    1
     3    25     1    1
     4     1     2    1
     5    43    21    1
     6    42    20    1
     7    21    20   ar
     8    21    22   ar
     9     2     3    1
    10    44    22    1
    11    20    19   ar
    12     4     3    2
    13    22    17   ar
    14     3     5    1
    15    31     8    1
    16    19    41    1
    17    19    18   ar
    18    17    18   ar
    19    17    15    1
    20    28     7    1
    21    14    15    1
    22    14    13    1
    23    38    12    1
    24     5    26    1
    25     5     6    1
    26     5    13    1
    27    18    40    1
    28    27     6    1
    29     8    29    1
    30     8     7    1
    31     8    30    1
    32    15    16    2
    33     6     7    1
    34     6     9    1
    35     7    11    1
    36    13    12    1
    37    13    39    1
    38    12    11    1
    39    12    37    1
    40    11    36    1
    41    11    10    1
    42     9    32    1
    43     9    33    1
    44     9    10    1
    45    10    34    1
    46    10    35    1
