@<TRIPOS>MOLECULE
/tmp/ewbell/vina_2pgz_2pgz_lig/vina/vina1.pdbqt
 23 25 0 0 0
SMALL
GASTEIGER

@<TRIPOS>ATOM
      1  C3       -15.6250   24.2700   55.5500 C.3   1078  INH1078     0.1460
      2  C4       -16.5350   24.5040   54.3280 C.3   1078  INH1078     0.2040
      3  N1       -16.3750   23.3970   53.4110 N.4   1078  INH1078    -0.0650
      4  C5       -17.5150   22.7340   52.7980 C.3   1078  INH1078     0.2700
      5  C6       -15.9130   25.4990   53.3310 C.3   1078  INH1078     0.0360
      6  C7       -14.9280   24.7140   52.4410 C.3   1078  INH1078     0.0350
      7  C8       -15.0370   23.2400   52.8800 C.3   1078  INH1078     0.1910
      8  C9       -14.0800   22.8890   54.0350 C.3   1078  INH1078     0.0660
      9  C10      -14.1790   23.9170   55.1800 C.3   1078  INH1078     0.1490
     10  H6       -16.2700   22.7000   54.1300 H     1078  INH1078     0.2800
     11  O3       -13.6060   23.3780   56.3440 O.3   1078  INH1078    -0.3110
     12  C11      -12.1720   23.4480   56.3720 C.2   1078  INH1078     0.2930
     13  O4       -11.5890   24.4340   55.9510 O.2   1078  INH1078    -0.2590
     14  C12      -11.4660   22.2260   56.8640 C.ar  1078  INH1078     0.0390
     15  C17      -12.2370   21.1840   57.3930 C.ar  1078  INH1078     0.0170
     16  C16      -11.6260   20.0080   57.8370 C.ar  1078  INH1078     0.0010
     17  C15      -10.2440   19.8970   57.7500 C.ar  1078  INH1078     0.0000
     18  C14       -9.4820   20.9350   57.2090 C.ar  1078  INH1078     0.0010
     19  C13      -10.0800   22.1040   56.7610 C.ar  1078  INH1078     0.0170
     20  C2       -16.1900   23.1970   56.4420 C.2   1078  INH1078     0.2670
     21  O2       -16.8170   22.2100   56.0270 O.2   1078  INH1078    -0.2650
     22  O1       -15.9650   23.3090   57.8540 O.3   1078  INH1078    -0.3260
     23  C1       -16.2130   24.5480   58.5270 C.3   1078  INH1078     0.2130
@<TRIPOS>BOND
     1     6     7    1
     2     6     5    1
     3     4     3    1
     4     7     3    1
     5     7     8    1
     6     5     2    1
     7     3    10    1
     8     3     2    1
     9     8     9    1
    10     2     1    1
    11     9     1    1
    12     9    11    1
    13     1    20    1
    14    13    12    2
    15    21    20    2
    16    11    12    1
    17    12    14    1
    18    20    22    1
    19    19    14   ar
    20    19    18   ar
    21    14    15   ar
    22    18    17   ar
    23    15    16   ar
    24    17    16   ar
    25    22    23    1
