@<TRIPOS>MOLECULE
/tmp/ewbell/vina_2pgz_2pgz_lig/vina/vina2.pdbqt
 23 25 0 0 0
SMALL
GASTEIGER

@<TRIPOS>ATOM
      1  C3       -11.6920   21.5520   57.7300 C.3   1078  INH1078     0.1460
      2  C4       -12.4190   22.1470   56.5070 C.3   1078  INH1078     0.2040
      3  N1       -11.8770   23.4610   56.2390 N.4   1078  INH1078    -0.0650
      4  C5       -11.5150   23.8850   54.8970 C.3   1078  INH1078     0.2700
      5  C6       -13.7960   22.7240   56.8820 C.3   1078  INH1078     0.0360
      6  C7       -13.5710   24.1460   57.4350 C.3   1078  INH1078     0.0350
      7  C8       -12.0590   24.4200   57.3090 C.3   1078  INH1078     0.1910
      8  C9       -11.2630   23.9490   58.5420 C.3   1078  INH1078     0.0660
      9  C10      -11.6310   22.5040   58.9320 C.3   1078  INH1078     0.1490
     10  H6       -10.9320   23.2210   56.4920 H     1078  INH1078     0.2800
     11  O3       -10.6450   21.9830   59.7850 O.3   1078  INH1078    -0.3110
     12  C11      -11.0530   21.8890   61.1580 C.2   1078  INH1078     0.2930
     13  O4       -12.0280   21.2260   61.4740 O.2   1078  INH1078    -0.2590
     14  C12      -10.2700   22.7090   62.1310 C.ar  1078  INH1078     0.0390
     15  C17      -10.0620   22.1920   63.4160 C.ar  1078  INH1078     0.0170
     16  C16       -9.3100   22.9070   64.3510 C.ar  1078  INH1078     0.0010
     17  C15       -8.7810   24.1380   63.9870 C.ar  1078  INH1078     0.0000
     18  C14       -8.9810   24.6430   62.7000 C.ar  1078  INH1078     0.0010
     19  C13       -9.7220   23.9370   61.7620 C.ar  1078  INH1078     0.0170
     20  C2       -10.2980   21.1150   57.3660 C.2   1078  INH1078     0.2670
     21  O2        -9.4280   21.8780   56.9180 O.2   1078  INH1078    -0.2650
     22  O1        -9.9470   19.7410   57.5780 O.3   1078  INH1078    -0.3260
     23  C1        -8.5710   19.3480   57.6260 C.3   1078  INH1078     0.2130
@<TRIPOS>BOND
     1     4     3    1
     2     3    10    1
     3     3     2    1
     4     3     7    1
     5     2     5    1
     6     2     1    1
     7     5     6    1
     8    21    20    2
     9     7     6    1
    10     7     8    1
    11    20    22    1
    12    20     1    1
    13    22    23    1
    14     1     9    1
    15     8     9    1
    16     9    11    1
    17    11    12    1
    18    12    13    2
    19    12    14    1
    20    19    14   ar
    21    19    18   ar
    22    14    15   ar
    23    18    17   ar
    24    15    16   ar
    25    17    16   ar
