@<TRIPOS>MOLECULE
/tmp/ewbell/vina_2pgz_2pgz_lig/vina/vina5.pdbqt
 23 25 0 0 0
SMALL
GASTEIGER

@<TRIPOS>ATOM
      1  C3       -13.5680   23.8660   54.0030 C.3   1078  INH1078     0.1460
      2  C4       -14.4770   24.4150   52.8850 C.3   1078  INH1078     0.2040
      3  N1       -15.2970   25.4740   53.4300 N.4   1078  INH1078    -0.0650
      4  C5       -15.4770   26.7410   52.7400 C.3   1078  INH1078     0.2700
      5  C6       -15.7000   23.5110   52.6430 C.3   1078  INH1078     0.0360
      6  C7       -16.7700   23.8840   53.6900 C.3   1078  INH1078     0.0350
      7  C8       -16.1880   25.0630   54.4950 C.3   1078  INH1078     0.1910
      8  C9       -15.3470   24.6040   55.7010 C.3   1078  INH1078     0.0660
      9  C10      -14.3220   23.5260   55.2950 C.3   1078  INH1078     0.1490
     10  H6       -14.5820   25.8330   54.0430 H     1078  INH1078     0.2800
     11  O3       -13.3410   23.4130   56.2930 O.3   1078  INH1078    -0.3110
     12  C11      -13.2800   22.1160   56.9060 C.2   1078  INH1078     0.2930
     13  O4       -14.3000   21.5430   57.2540 O.2   1078  INH1078    -0.2590
     14  C12      -11.9100   21.5730   57.1550 C.ar  1078  INH1078     0.0390
     15  C17      -11.7960   20.2920   57.7080 C.ar  1078  INH1078     0.0170
     16  C16      -10.5370   19.7280   57.9310 C.ar  1078  INH1078     0.0010
     17  C15       -9.4060   20.4630   57.6020 C.ar  1078  INH1078     0.0000
     18  C14       -9.5260   21.7360   57.0390 C.ar  1078  INH1078     0.0010
     19  C13      -10.7720   22.3010   56.8080 C.ar  1078  INH1078     0.0170
     20  C2       -12.4550   24.8310   54.3120 C.2   1078  INH1078     0.2670
     21  O2       -12.6350   25.9850   54.7300 O.2   1078  INH1078    -0.2650
     22  O1       -11.1060   24.3780   54.1400 O.3   1078  INH1078    -0.3260
     23  C1       -10.3730   24.7270   52.9610 C.3   1078  INH1078     0.2130
@<TRIPOS>BOND
     1     5     2    1
     2     5     6    1
     3     4     3    1
     4     2     3    1
     5     2     1    1
     6    23    22    1
     7     3    10    1
     8     3     7    1
     9     6     7    1
    10     1    20    1
    11     1     9    1
    12    22    20    1
    13    20    21    2
    14     7     8    1
    15     9     8    1
    16     9    11    1
    17    11    12    1
    18    19    18   ar
    19    19    14   ar
    20    12    14    1
    21    12    13    2
    22    18    17   ar
    23    14    15   ar
    24    17    16   ar
    25    15    16   ar
