@<TRIPOS>MOLECULE
/tmp/ewbell/vina_2pgz_2pgz_lig/vina/vina3.pdbqt
 23 25 0 0 0
SMALL
GASTEIGER

@<TRIPOS>ATOM
      1  C3       -11.5130   20.8420   58.9600 C.3   1078  INH1078     0.1460
      2  C4       -11.9100   21.4220   57.5870 C.3   1078  INH1078     0.2040
      3  N1       -11.0210   22.5190   57.2720 N.4   1078  INH1078    -0.0650
      4  C5       -10.4020   22.6570   55.9640 C.3   1078  INH1078     0.2700
      5  C6       -13.1280   22.3590   57.6890 C.3   1078  INH1078     0.0360
      6  C7       -12.6130   23.7470   58.1220 C.3   1078  INH1078     0.0350
      7  C8       -11.0780   23.6300   58.1990 C.3   1078  INH1078     0.1910
      8  C9       -10.5840   23.1540   59.5790 C.3   1078  INH1078     0.0660
      9  C10      -11.3560   21.9070   60.0540 C.3   1078  INH1078     0.1490
     10  H6       -10.2060   22.0960   57.6870 H     1078  INH1078     0.2800
     11  O3       -10.6470   21.2850   61.0950 O.3   1078  INH1078    -0.3110
     12  C11      -10.9750   21.7830   62.4000 C.2   1078  INH1078     0.2930
     13  O4       -10.5380   22.8560   62.7850 O.2   1078  INH1078    -0.2590
     14  C12      -11.7960   20.8780   63.2600 C.ar  1078  INH1078     0.0390
     15  C17      -11.3330   19.5760   63.4830 C.ar  1078  INH1078     0.0170
     16  C16      -12.0500   18.7020   64.3050 C.ar  1078  INH1078     0.0010
     17  C15      -13.2300   19.1460   64.8860 C.ar  1078  INH1078     0.0000
     18  C14      -13.6810   20.4500   64.6690 C.ar  1078  INH1078     0.0010
     19  C13      -12.9730   21.3260   63.8600 C.ar  1078  INH1078     0.0170
     20  C2       -10.2450   20.0390   58.8570 C.2   1078  INH1078     0.2670
     21  O2        -9.9480   19.1110   59.6260 O.2   1078  INH1078    -0.2650
     22  O1        -9.3390   20.3450   57.7880 O.3   1078  INH1078    -0.3260
     23  C1        -8.6850   19.2920   57.0730 C.3   1078  INH1078     0.2130
@<TRIPOS>BOND
     1     4     3    1
     2    23    22    1
     3     3     2    1
     4     3    10    1
     5     3     7    1
     6     2     5    1
     7     2     1    1
     8     5     6    1
     9    22    20    1
    10     6     7    1
    11     7     8    1
    12    20     1    1
    13    20    21    2
    14     1     9    1
    15     8     9    1
    16     9    11    1
    17    11    12    1
    18    12    13    2
    19    12    14    1
    20    14    15   ar
    21    14    19   ar
    22    15    16   ar
    23    19    18   ar
    24    16    17   ar
    25    18    17   ar
