@<TRIPOS>MOLECULE
/tmp/ewbell/vina_2pgz_2pgz_lig/vina/vina4.pdbqt
 23 25 0 0 0
SMALL
GASTEIGER

@<TRIPOS>ATOM
      1  C3       -14.0540   24.5430   56.3560 C.3   1078  INH1078     0.1460
      2  C4       -14.3220   25.4230   55.1180 C.3   1078  INH1078     0.2040
      3  N1       -13.8110   24.7450   53.9480 N.4   1078  INH1078    -0.0650
      4  C5       -14.5840   24.6370   52.7210 C.3   1078  INH1078     0.2700
      5  C6       -13.2910   26.5590   54.9860 C.3   1078  INH1078     0.0360
      6  C7       -12.0410   25.9760   54.2960 C.3   1078  INH1078     0.0350
      7  C8       -12.3820   24.5100   53.9610 C.3   1078  INH1078     0.1910
      8  C9       -12.0450   23.5410   55.1110 C.3   1078  INH1078     0.0660
      9  C10      -12.6060   24.0480   56.4550 C.3   1078  INH1078     0.1490
     10  H6       -14.0570   23.8210   54.2650 H     1078  INH1078     0.2800
     11  O3       -12.6240   22.9930   57.3820 O.3   1078  INH1078    -0.3110
     12  C11      -11.4890   22.9720   58.2620 C.2   1078  INH1078     0.2930
     13  O4       -11.1850   23.9610   58.9090 O.2   1078  INH1078    -0.2590
     14  C12      -10.6830   21.7130   58.2610 C.ar  1078  INH1078     0.0390
     15  C17      -10.8760   20.8030   59.3070 C.ar  1078  INH1078     0.0170
     16  C16      -10.1680   19.5990   59.3350 C.ar  1078  INH1078     0.0010
     17  C15       -9.2680   19.3270   58.3120 C.ar  1078  INH1078     0.0000
     18  C14       -9.0900   20.2330   57.2650 C.ar  1078  INH1078     0.0010
     19  C13       -9.7920   21.4290   57.2260 C.ar  1078  INH1078     0.0170
     20  C2       -14.9900   23.3660   56.3910 C.2   1078  INH1078     0.2670
     21  O2       -15.1870   22.6080   55.4280 O.2   1078  INH1078    -0.2650
     22  O1       -15.6730   23.0850   57.6210 O.3   1078  INH1078    -0.3260
     23  C1       -16.2670   24.1480   58.3740 C.3   1078  INH1078     0.2130
@<TRIPOS>BOND
     1     4     3    1
     2     3     7    1
     3     3    10    1
     4     3     2    1
     5     7     6    1
     6     7     8    1
     7     6     5    1
     8     5     2    1
     9     8     9    1
    10     2     1    1
    11    21    20    2
    12     1    20    1
    13     1     9    1
    14    20    22    1
    15     9    11    1
    16    19    18   ar
    17    19    14   ar
    18    18    17   ar
    19    11    12    1
    20    22    23    1
    21    14    12    1
    22    14    15   ar
    23    12    13    2
    24    17    16   ar
    25    15    16   ar
