@<TRIPOS>MOLECULE
./ligand/1y20_lig.pdb
 14 14 0 0 0
SMALL
GASTEIGER

@<TRIPOS>ATOM
      1  C1        20.8050   33.4790    6.9700 C.3   290  INH290      0.0097
      2  C2        20.0800   33.2810    8.2730 C.3   290  INH290      0.0097
      3  C3        21.3130   32.5010    8.0020 C.3   290  INH290      0.0894
      4  C4        22.6290   32.8060    8.6750 C.2   290  INH290      0.4056
      5  O1        22.8360   34.0010    9.0280 O.co2 290  INH290     -0.2396
      6  O2        23.3420   31.8240    8.9450 O.co2 290  INH290     -0.2396
      7  N1        21.1810   31.0940    7.5520 N.4   290  INH290      0.2311
      8  H1        21.3520   34.4140    6.7780 H     290  INH290      0.0331
      9  H2        20.3640   33.1130    6.0310 H     290  INH290      0.0331
     10  H3        19.1030   32.7750    8.2850 H     290  INH290      0.0331
     11  H4        20.0910   34.0770    9.0330 H     290  INH290      0.0331
     12  H5        22.0980   30.6990    7.4100 H     290  INH290      0.2005
     13  H6        20.6650   31.0650    6.6870 H     290  INH290      0.2005
     14  H7        20.6910   30.5610    8.2530 H     290  INH290      0.2005
@<TRIPOS>BOND
     1     1     9    1
     2     1     8    1
     3     1     3    1
     4     1     2    1
     5     2    11    1
     6     2    10    1
     7     2     3    1
     8     3     7    1
     9     3     4    1
    10     4     6   ar
    11     4     5   ar
    12     7    14    1
    13     7    13    1
    14     7    12    1
