@<TRIPOS>MOLECULE
/tmp/ewbell/vina_1y20_1y20_lig/vina/vina4.pdbqt
 11 11 0 0 0
SMALL
GASTEIGER

@<TRIPOS>ATOM
      1  C1        30.9250   40.6540    6.3770 C.3   290  INH290      0.0530
      2  C2        31.2660   42.0960    6.6370 C.3   290  INH290      0.0530
      3  C3        30.5520   41.3190    7.6810 C.3   290  INH290      0.2070
      4  N1        29.0850   41.4940    7.8200 N.4   290  INH290     -0.0600
      5  H7        28.6350   40.5930    7.7950 H     290  INH290      0.2750
      6  H6        28.8830   41.9460    8.6970 H     290  INH290      0.2750
      7  H5        28.7410   42.0620    7.0610 H     290  INH290      0.2750
      8  C4        31.2310   40.8350    8.9390 C.2   290  INH290      0.1770
      9  O2        30.7170   39.8460    9.4880 O.2   290  INH290     -0.6480
     10  O1        32.1690   41.5450    9.3990 O.3   290  INH290     -0.7750
     11  H         32.2340   41.6930   10.3220 H     290  INH290      0.1670
@<TRIPOS>BOND
     1     1     2    1
     2     1     3    1
     3     2     3    1
     4     7     4    1
     5     3     4    1
     6     3     8    1
     7     5     4    1
     8     4     6    1
     9     8    10    1
    10     8     9    2
    11    10    11    1
