@<TRIPOS>MOLECULE
/tmp/ewbell/vina_1y20_1y20_lig/vina/vina3.pdbqt
 11 11 0 0 0
SMALL
GASTEIGER

@<TRIPOS>ATOM
      1  C1        31.4530   40.0810    7.6520 C.3   290  INH290      0.0530
      2  C2        30.8680   39.6030    8.9520 C.3   290  INH290      0.0530
      3  C3        30.9740   41.0610    8.6960 C.3   290  INH290      0.2070
      4  N1        32.0940   41.8120    9.3140 N.4   290  INH290     -0.0600
      5  H7        32.8460   41.9020    8.6490 H     290  INH290      0.2750
      6  H6        31.7750   42.7290    9.5850 H     290  INH290      0.2750
      7  H5        32.4230   41.3170   10.1280 H     290  INH290      0.2750
      8  C4        29.7750   41.9150    8.3650 C.2   290  INH290      0.1770
      9  O2        29.9700   43.1420    8.3450 O.2   290  INH290     -0.6480
     10  O1        28.6580   41.3330    8.2720 O.3   290  INH290     -0.7750
     11  H         27.9650   41.7250    7.7770 H     290  INH290      0.1670
@<TRIPOS>BOND
     1     1     3    1
     2     1     2    1
     3    11    10    1
     4    10     8    1
     5     9     8    2
     6     8     3    1
     7     5     4    1
     8     3     2    1
     9     3     4    1
    10     4     6    1
    11     4     7    1
