@<TRIPOS>MOLECULE
/tmp/ewbell/vina_1y20_1y20_lig/vina/vina5.pdbqt
 11 11 0 0 0
SMALL
GASTEIGER

@<TRIPOS>ATOM
      1  C1        14.6310   23.0130    2.0860 C.3   290  INH290      0.0530
      2  C2        14.8720   21.9100    1.0910 C.3   290  INH290      0.0530
      3  C3        14.6940   23.3010    0.6050 C.3   290  INH290      0.2070
      4  N1        13.3750   23.7010    0.0570 N.4   290  INH290     -0.0600
      5  H7        13.2680   24.7000    0.1310 H     290  INH290      0.2750
      6  H6        13.3180   23.4290   -0.9110 H     290  INH290      0.2750
      7  H5        12.6420   23.2450    0.5780 H     290  INH290      0.2750
      8  C4        15.8440   24.1360    0.0980 C.2   290  INH290      0.1770
      9  O2        15.5470   25.2570   -0.3490 O.2   290  INH290     -0.6480
     10  O1        16.9790   23.5840    0.0410 O.3   290  INH290     -0.7750
     11  H         17.2210   23.0860   -0.7150 H     290  INH290      0.1670
@<TRIPOS>BOND
     1     6     4    1
     2    11    10    1
     3     9     8    2
     4    10     8    1
     5     4     5    1
     6     4     7    1
     7     4     3    1
     8     8     3    1
     9     3     2    1
    10     3     1    1
    11     2     1    1
