@<TRIPOS>MOLECULE
/tmp/ewbell/vina_1y20_1y20_lig/vina/vina1.pdbqt
 11 11 0 0 0
SMALL
GASTEIGER

@<TRIPOS>ATOM
      1  C1        20.8890   33.4100    6.9520 C.3   290  INH290      0.0530
      2  C2        20.1270   33.2140    8.2340 C.3   290  INH290      0.0530
      3  C3        21.3610   32.4240    7.9940 C.3   290  INH290      0.2070
      4  N1        21.2300   31.0200    7.5360 N.4   290  INH290     -0.0600
      5  H7        20.9090   31.0060    6.5810 H     290  INH290      0.2750
      6  H6        22.1260   30.5620    7.5960 H     290  INH290      0.2750
      7  H5        20.5660   30.5360    8.1210 H     290  INH290      0.2750
      8  C4        22.6610   32.7170    8.7030 C.2   290  INH290      0.1770
      9  O2        23.2540   31.7330    9.1780 O.2   290  INH290     -0.6480
     10  O1        22.9660   33.9300    8.8760 O.3   290  INH290     -0.7750
     11  H         23.8410   34.2210    8.7100 H     290  INH290      0.1670
@<TRIPOS>BOND
     1     5     4    1
     2     1     3    1
     3     1     2    1
     4     4     6    1
     5     4     3    1
     6     4     7    1
     7     3     2    1
     8     3     8    1
     9     8    10    1
    10     8     9    2
    11    11    10    1
