@<TRIPOS>MOLECULE
/tmp/ewbell/vina_1y20_1y20_lig/vina/vina2.pdbqt
 11 11 0 0 0
SMALL
GASTEIGER

@<TRIPOS>ATOM
      1  C1        14.3140   21.7070    1.9800 C.3   290  INH290      0.0530
      2  C2        14.4290   22.8300    2.9740 C.3   290  INH290      0.0530
      3  C3        14.3200   23.1470    1.5290 C.3   290  INH290      0.2070
      4  N1        15.5530   23.4940    0.7810 N.4   290  INH290     -0.0600
      5  H7        15.3160   23.7190   -0.1730 H     290  INH290      0.2750
      6  H6        15.9950   24.2900    1.2130 H     290  INH290      0.2750
      7  H5        16.1860   22.7100    0.7940 H     290  INH290      0.2750
      8  C4        13.0570   23.6990    0.9140 C.2   290  INH290      0.1770
      9  O2        12.8630   23.4120   -0.2800 O.2   290  INH290     -0.6480
     10  O1        12.3800   24.5070    1.6090 O.3   290  INH290     -0.7750
     11  H         11.9150   25.2070    1.1940 H     290  INH290      0.1670
@<TRIPOS>BOND
     1     9     8    2
     2     5     4    1
     3     4     7    1
     4     4     6    1
     5     4     3    1
     6     8     3    1
     7     8    10    1
     8    11    10    1
     9     3     1    1
    10     3     2    1
    11     1     2    1
