@<TRIPOS>MOLECULE
./ligand/2buv_lig.pdb
 16 16 0 0 0
SMALL
GASTEIGER

@<TRIPOS>ATOM
      1  C1        12.1990  -13.9010   41.4500 C.ar  891  INH891      0.0668
      2  C2        11.0860  -14.0810   42.2540 C.ar  891  INH891     -0.0024
      3  C3         9.8260  -13.7250   41.7910 C.ar  891  INH891      0.1590
      4  O1         8.7140  -13.9070   42.6010 O.3   891  INH891     -0.5033
      5  C4         9.6810  -13.1840   40.5280 C.ar  891  INH891      0.1583
      6  O2         8.4270  -12.8270   40.0750 O.3   891  INH891     -0.5033
      7  C5        10.7930  -12.9990   39.7170 C.ar  891  INH891     -0.0158
      8  C6        12.0530  -13.3620   40.1760 C.ar  891  INH891     -0.0439
      9  C7        13.5210  -14.2720   41.9400 C.2   891  INH891      0.3867
     10  O3        13.9950  -13.6890   42.9500 O.co2 891  INH891     -0.2406
     11  O4        14.1970  -15.1670   41.3600 O.co2 891  INH891     -0.2406
     12  H1        11.1980  -14.5010   43.2470 H     891  INH891      0.0663
     13  H2        10.6780  -12.5720   38.7270 H     891  INH891      0.0655
     14  H3        12.9220  -13.2250   39.5420 H     891  INH891      0.0627
     15  H4         8.9840  -14.2860   43.4290 H     891  INH891      0.2923
     16  H5         8.4970  -12.4740   39.1960 H     891  INH891      0.2923
@<TRIPOS>BOND
     1    13     7    1
     2    16     6    1
     3    14     8    1
     4     7     8   ar
     5     7     5   ar
     6     6     5    1
     7     8     1   ar
     8     5     3   ar
     9    11     9   ar
    10     1     9    1
    11     1     2   ar
    12     3     2   ar
    13     3     4    1
    14     9    10   ar
    15     2    12    1
    16     4    15    1
