@<TRIPOS>MOLECULE
/tmp/ewbell/vina_2buv_2buv_lig/vina/vina4.pdbqt
 14 14 0 0 0
SMALL
GASTEIGER

@<TRIPOS>ATOM
      1  C1        23.4930  -14.0370   40.3820 C.ar  891  INH891      0.0400
      2  C2        24.4360  -14.3010   41.3620 C.ar  891  INH891      0.0570
      3  C3        24.0380  -14.5020   42.6770 C.ar  891  INH891      0.0990
      4  C4        22.7000  -14.4330   43.0120 C.ar  891  INH891      0.0980
      5  C5        21.7490  -14.1680   42.0360 C.ar  891  INH891      0.0400
      6  C6        22.1450  -13.9740   40.7180 C.ar  891  INH891      0.0210
      7  C7        23.9140  -13.8230   39.0030 C.2   891  INH891      0.1760
      8  O4        24.2810  -14.7920   38.2810 O.2   891  INH891     -0.6460
      9  O3        23.9080  -12.6570   38.5260 O.3   891  INH891     -0.7730
     10  H         23.5780  -11.9440   39.0360 H     891  INH891      0.1670
     11  O1        24.9870  -14.7650   43.6550 O.3   891  INH891     -0.3580
     12  H4        24.5710  -15.1960   44.3920 H     891  INH891      0.2170
     13  O2        22.3100  -14.6290   44.3220 O.3   891  INH891     -0.3580
     14  H5        21.3620  -14.6180   44.3750 H     891  INH891      0.2170
@<TRIPOS>BOND
     1     8     7    2
     2     9     7    1
     3     9    10    1
     4     7     1    1
     5     1     6   ar
     6     1     2   ar
     7     6     5   ar
     8     2     3   ar
     9     5     4   ar
    10     3     4   ar
    11     3    11    1
    12     4    13    1
    13    11    12    1
    14    13    14    1
