@<TRIPOS>MOLECULE
/tmp/ewbell/vina_2buv_2buv_lig/vina/vina3.pdbqt
 14 14 0 0 0
SMALL
GASTEIGER

@<TRIPOS>ATOM
      1  C1        23.5880  -15.1820   39.2320 C.ar  891  INH891      0.0400
      2  C2        22.2190  -15.3080   39.3990 C.ar  891  INH891      0.0570
      3  C3        21.5610  -14.5500   40.3590 C.ar  891  INH891      0.0990
      4  C4        22.2730  -13.6740   41.1550 C.ar  891  INH891      0.0980
      5  C5        23.6460  -13.5440   40.9940 C.ar  891  INH891      0.0400
      6  C6        24.3040  -14.2950   40.0290 C.ar  891  INH891      0.0210
      7  C7        24.2770  -15.9820   38.2260 C.2   891  INH891      0.1760
      8  O4        23.7470  -17.0280   37.7590 O.2   891  INH891     -0.6460
      9  O3        25.4110  -15.6200   37.8160 O.3   891  INH891     -0.7730
     10  H         26.1830  -16.0280   38.1550 H     891  INH891      0.1670
     11  O1        20.1890  -14.6800   40.5220 O.3   891  INH891     -0.3580
     12  H4        19.7510  -13.9400   40.1180 H     891  INH891      0.2170
     13  O2        21.6140  -12.9270   42.1110 O.3   891  INH891     -0.3580
     14  H5        22.2280  -12.6680   42.7880 H     891  INH891      0.2170
@<TRIPOS>BOND
     1     8     7    2
     2     9    10    1
     3     9     7    1
     4     7     1    1
     5     1     2   ar
     6     1     6   ar
     7     2     3   ar
     8     6     5   ar
     9    12    11    1
    10     3    11    1
    11     3     4   ar
    12     5     4   ar
    13     4    13    1
    14    13    14    1
