@<TRIPOS>MOLECULE
/tmp/ewbell/vina_2buv_2buv_lig/vina/vina1.pdbqt
 14 14 0 0 0
SMALL
GASTEIGER

@<TRIPOS>ATOM
      1  C1        23.8010  -14.3800   41.8000 C.ar  891  INH891      0.0400
      2  C2        24.2580  -13.5900   40.7590 C.ar  891  INH891      0.0570
      3  C3        23.4280  -13.3040   39.6830 C.ar  891  INH891      0.0990
      4  C4        22.1450  -13.8130   39.6450 C.ar  891  INH891      0.0980
      5  C5        21.6800  -14.6080   40.6850 C.ar  891  INH891      0.0400
      6  C6        22.5060  -14.8880   41.7660 C.ar  891  INH891      0.0210
      7  C7        24.6760  -14.6820   42.9260 C.2   891  INH891      0.1760
      8  O4        25.9220  -14.8040   42.7620 O.2   891  INH891     -0.6460
      9  O3        24.1820  -14.8170   44.0770 O.3   891  INH891     -0.7730
     10  H         24.0550  -15.6730   44.4340 H     891  INH891      0.1670
     11  O1        23.8920  -12.5120   38.6420 O.3   891  INH891     -0.3580
     12  H4        24.7160  -12.8600   38.3210 H     891  INH891      0.2170
     13  O2        21.3260  -13.5310   38.5710 O.3   891  INH891     -0.3580
     14  H5        21.4080  -14.2190   37.9210 H     891  INH891      0.2170
@<TRIPOS>BOND
     1    14    13    1
     2    12    11    1
     3    13     4    1
     4    11     3    1
     5     4     3   ar
     6     4     5   ar
     7     3     2   ar
     8     5     6   ar
     9     2     1   ar
    10     6     1   ar
    11     1     7    1
    12     8     7    2
    13     7     9    1
    14     9    10    1
