@<TRIPOS>MOLECULE
/tmp/ewbell/vina_2buv_2buv_lig/vina/vina5.pdbqt
 14 14 0 0 0
SMALL
GASTEIGER

@<TRIPOS>ATOM
      1  C1        21.7730  -14.2610   41.2910 C.ar  891  INH891      0.0400
      2  C2        22.6630  -13.2270   41.5250 C.ar  891  INH891      0.0570
      3  C3        23.4000  -12.6900   40.4770 C.ar  891  INH891      0.0990
      4  C4        23.2520  -13.1930   39.1990 C.ar  891  INH891      0.0980
      5  C5        22.3620  -14.2310   38.9570 C.ar  891  INH891      0.0400
      6  C6        21.6180  -14.7630   40.0030 C.ar  891  INH891      0.0210
      7  C7        21.0030  -14.8250   42.3930 C.2   891  INH891      0.1760
      8  O4        21.2970  -14.5550   43.5910 O.2   891  INH891     -0.6460
      9  O3        20.0300  -15.5860   42.1450 O.3   891  INH891     -0.7730
     10  H         19.3530  -15.3050   41.5630 H     891  INH891      0.1670
     11  O1        24.2910  -11.6540   40.7170 O.3   891  INH891     -0.3580
     12  H4        23.9930  -10.8700   40.2710 H     891  INH891      0.2170
     13  O2        23.9910  -12.6600   38.1620 O.3   891  INH891     -0.3580
     14  H5        23.4040  -12.3180   37.4980 H     891  INH891      0.2170
@<TRIPOS>BOND
     1    14    13    1
     2    13     4    1
     3     5     4   ar
     4     5     6   ar
     5     4     3   ar
     6     6     1   ar
     7    12    11    1
     8     3    11    1
     9     3     2   ar
    10     1     2   ar
    11     1     7    1
    12    10     9    1
    13     9     7    1
    14     7     8    2
