@<TRIPOS>MOLECULE
/tmp/ewbell/vina_2buv_2buv_lig/vina/vina2.pdbqt
 14 14 0 0 0
SMALL
GASTEIGER

@<TRIPOS>ATOM
      1  C1        23.6450  -15.1670   39.1120 C.ar  891  INH891      0.0400
      2  C2        24.2130  -13.9560   39.4710 C.ar  891  INH891      0.0570
      3  C3        23.5730  -13.1280   40.3830 C.ar  891  INH891      0.0990
      4  C4        22.3630  -13.5080   40.9320 C.ar  891  INH891      0.0980
      5  C5        21.7870  -14.7210   40.5750 C.ar  891  INH891      0.0400
      6  C6        22.4300  -15.5530   39.6680 C.ar  891  INH891      0.0210
      7  C7        24.3180  -16.0320   38.1510 C.2   891  INH891      0.1760
      8  O4        23.7530  -17.0730   37.7130 O.2   891  INH891     -0.6460
      9  O3        25.4740  -15.7350   37.7500 O.3   891  INH891     -0.7730
     10  H         26.2250  -16.0420   38.2180 H     891  INH891      0.1670
     11  O1        24.1470  -11.9150   40.7390 O.3   891  INH891     -0.3580
     12  H4        23.5350  -11.4200   41.2710 H     891  INH891      0.2170
     13  O2        21.7290  -12.6790   41.8340 O.3   891  INH891     -0.3580
     14  H5        20.8400  -12.9840   41.9740 H     891  INH891      0.2170
@<TRIPOS>BOND
     1     8     7    2
     2     9     7    1
     3     9    10    1
     4     7     1    1
     5     1     2   ar
     6     1     6   ar
     7     2     3   ar
     8     6     5   ar
     9     3    11    1
    10     3     4   ar
    11     5     4   ar
    12    11    12    1
    13     4    13    1
    14    13    14    1
