@<TRIPOS>MOLECULE
./ligand/1syh_lig.pdb
 30 31 0 0 0
SMALL
GASTEIGER

@<TRIPOS>ATOM
      1  N1        22.7700   11.9280   24.9570 N.4   523  INH523      0.2302
      2  C1        23.0830   13.3710   25.2740 C.3   523  INH523      0.0968
      3  C2        23.2920   13.6760   26.7820 C.2   523  INH523      0.4044
      4  O1        23.5480   14.8670   27.1120 O.co2 523  INH523     -0.2399
      5  C3        21.8970   14.2400   24.8080 C.3   523  INH523      0.0811
      6  O2        23.2080   12.6850   27.5730 O.co2 523  INH523     -0.2399
      7  H1        20.9640   13.8020   25.1920 H     523  INH523      0.0555
      8  H2        22.0200   15.2550   25.2140 H     523  INH523      0.0555
      9  H3        23.9940   13.6550   24.7280 H     523  INH523      0.0988
     10  H4        23.5360   11.3450   25.2550 H     523  INH523      0.2003
     11  H5        22.6360   11.8240   23.9630 H     523  INH523      0.2003
     12  H6        21.9300   11.6520   25.4410 H     523  INH523      0.2003
     13  N2        21.8160   14.3210   23.3530 N.ar  523  INH523     -0.2914
     14  C4        22.8650   15.0780   22.6130 C.ar  523  INH523      0.3297
     15  N3        22.8760   14.9850   21.2790 N.ar  523  INH523     -0.2747
     16  C5        20.8290   13.6450   22.6210 C.ar  523  INH523      0.0320
     17  O3        23.6870   15.7320   23.2890 O.2   523  INH523     -0.2465
     18  C6        20.8270   13.6530   21.2500 C.ar  523  INH523      0.0365
     19  C7        21.9390   14.3130   20.5340 C.ar  523  INH523      0.2574
     20  O4        22.0150   14.2380   19.3010 O.2   523  INH523     -0.2674
     21  C8        19.6900   12.8090   23.1870 C.3   523  INH523     -0.0114
     22  C9        19.0260   12.1900   21.9160 C.3   523  INH523     -0.0435
     23  C10       19.6330   12.9380   20.6790 C.3   523  INH523     -0.0206
     24  H7        23.6210   15.4380   20.7890 H     523  INH523      0.1734
     25  H8        18.9750   13.4390   23.7370 H     523  INH523      0.0328
     26  H9        20.0730   12.0220   23.8530 H     523  INH523      0.0328
     27  H10       17.9360   12.3350   21.9490 H     523  INH523      0.0272
     28  H11       19.2510   11.1150   21.8560 H     523  INH523      0.0272
     29  H12       19.9380   12.2240   19.8990 H     523  INH523      0.0315
     30  H13       18.9100   13.6530   20.2590 H     523  INH523      0.0315
@<TRIPOS>BOND
     1     1    12    1
     2     1     2    1
     3     1    10    1
     4     1    11    1
     5     2     3    1
     6     2     5    1
     7     2     9    1
     8     3     6   ar
     9     3     4   ar
    10     5     8    1
    11     5     7    1
    12     5    13    1
    13    13    16   ar
    14    13    14   ar
    15    14    17    2
    16    14    15   ar
    17    15    24    1
    18    15    19   ar
    19    16    18   ar
    20    16    21    1
    21    18    19   ar
    22    18    23    1
    23    19    20    2
    24    21    26    1
    25    21    25    1
    26    21    22    1
    27    22    28    1
    28    22    27    1
    29    22    23    1
    30    23    30    1
    31    23    29    1
