@<TRIPOS>MOLECULE
/tmp/ewbell/vina_1syh_1syh_lig/vina/vina3.pdbqt
 22 23 0 0 0
SMALL
GASTEIGER

@<TRIPOS>ATOM
      1  N2        29.4960    1.7660   39.6900 N.ar  523  INH523     -0.3000
      2  C4        28.4600    2.3120   38.7690 C.ar  523  INH523      0.3290
      3  N3        27.6500    1.4410   38.1560 N.ar  523  INH523     -0.2750
      4  C5        29.5030    0.3890   39.9590 C.ar  523  INH523      0.0280
      5  O3        28.4290    3.5500   38.6060 O.2   523  INH523     -0.2460
      6  C6        28.5930   -0.4550   39.3770 C.ar  523  INH523      0.0330
      7  C7        27.6470    0.0860   38.3790 C.ar  523  INH523      0.2570
      8  O4        26.8920   -0.6760   37.7620 O.2   523  INH523     -0.2670
      9  C8        30.4830   -0.3580   40.8530 C.3   523  INH523      0.0580
     10  C9        30.0980   -1.8560   40.6420 C.3   523  INH523      0.0110
     11  C10       28.7320   -1.8690   39.8730 C.3   523  INH523      0.0460
     12  H7        27.0010    1.8030   37.4870 H     523  INH523      0.1730
     13  C3        30.5180    2.6660   40.2170 C.3   523  INH523      0.1770
     14  C1        31.6080    2.9780   39.1720 C.3   523  INH523      0.2980
     15  N1        32.8410    2.1770   39.5150 N.4   523  INH523     -0.0640
     16  H6        33.6520    2.7740   39.4740 H     523  INH523      0.2750
     17  H4        32.9470    1.4230   38.8550 H     523  INH523      0.2750
     18  H5        32.7480    1.7980   40.4450 H     523  INH523      0.2750
     19  C2        31.8070    4.5180   39.1840 C.2   523  INH523      0.1730
     20  O2        32.9370    4.9430   38.7860 O.2   523  INH523     -0.6480
     21  O1        30.8400    5.2340   39.5650 O.3   523  INH523     -0.7750
     22  H         30.0530    4.8310   39.8750 H     523  INH523      0.1670
@<TRIPOS>BOND
     1    12     3    1
     2     8     7    2
     3     3     7   ar
     4     3     2   ar
     5     7     6   ar
     6     5     2    2
     7     2     1   ar
     8    20    19    2
     9    17    15    1
    10    14    19    1
    11    14    15    1
    12    14    13    1
    13    19    21    1
    14     6    11    1
    15     6     4   ar
    16    16    15    1
    17    15    18    1
    18    21    22    1
    19     1     4   ar
    20     1    13    1
    21    11    10    1
    22     4     9    1
    23    10     9    1
