@<TRIPOS>MOLECULE
/tmp/ewbell/vina_1syh_1syh_lig/vina/vina4.pdbqt
 22 23 0 0 0
SMALL
GASTEIGER

@<TRIPOS>ATOM
      1  N2        14.8420   18.9340   24.1870 N.ar  523  INH523     -0.3000
      2  C4        13.9780   17.7200   24.1590 C.ar  523  INH523      0.3290
      3  N3        13.0020   17.6280   25.0690 N.ar  523  INH523     -0.2750
      4  C5        14.5250   19.9670   25.0820 C.ar  523  INH523      0.0280
      5  O3        14.2380   16.8490   23.3020 O.2   523  INH523     -0.2460
      6  C6        13.4570   19.8680   25.9350 C.ar  523  INH523      0.0330
      7  C7        12.6810   18.6100   25.9730 C.ar  523  INH523      0.2570
      8  O4        11.7830   18.4590   26.8110 O.2   523  INH523     -0.2670
      9  C8        15.2870   21.2700   25.2720 C.3   523  INH523      0.0580
     10  C9        14.5710   21.9370   26.4890 C.3   523  INH523      0.0110
     11  C10       13.2550   21.1220   26.7400 C.3   523  INH523      0.0460
     12  H7        12.4680   16.7830   25.0920 H     523  INH523      0.1730
     13  C3        16.0330   18.9730   23.3440 C.3   523  INH523      0.1770
     14  C1        17.1680   18.0930   23.9050 C.3   523  INH523      0.2980
     15  N1        18.3380   18.9850   24.2460 N.4   523  INH523     -0.0640
     16  H6        19.1950   18.5440   23.9480 H     523  INH523      0.2750
     17  H4        18.3680   19.1340   25.2420 H     523  INH523      0.2750
     18  H5        18.2340   19.8710   23.7760 H     523  INH523      0.2750
     19  C2        17.4640   17.0120   22.8310 C.2   523  INH523      0.1730
     20  O2        18.2080   16.0470   23.1940 O.2   523  INH523     -0.6480
     21  O1        16.9380   17.1530   21.6920 O.3   523  INH523     -0.7750
     22  H         17.3850   17.6390   21.0270 H     523  INH523      0.1670
@<TRIPOS>BOND
     1    22    21    1
     2    21    19    1
     3    19    20    2
     4    19    14    1
     5     5     2    2
     6    13    14    1
     7    13     1    1
     8    18    15    1
     9    14    15    1
    10    16    15    1
    11     2     1   ar
    12     2     3   ar
    13     1     4   ar
    14    15    17    1
    15     3    12    1
    16     3     7   ar
    17     4     9    1
    18     4     6   ar
    19     9    10    1
    20     6     7   ar
    21     6    11    1
    22     7     8    2
    23    10    11    1
