@<TRIPOS>MOLECULE
/tmp/ewbell/vina_1syh_1syh_lig/vina/vina5.pdbqt
 22 23 0 0 0
SMALL
GASTEIGER

@<TRIPOS>ATOM
      1  N2        29.5320    1.5900   39.3740 N.ar  523  INH523     -0.3000
      2  C4        29.4560    2.9340   38.7360 C.ar  523  INH523      0.3290
      3  N3        30.3770    3.8400   39.0800 N.ar  523  INH523     -0.2750
      4  C5        30.6190    1.3010   40.2120 C.ar  523  INH523      0.0280
      5  O3        28.5180    3.1390   37.9360 O.2   523  INH523     -0.2460
      6  C6        31.5920    2.2340   40.4650 C.ar  523  INH523      0.0330
      7  C7        31.4400    3.5970   39.9150 C.ar  523  INH523      0.2570
      8  O4        32.2470    4.4840   40.2200 O.2   523  INH523     -0.2670
      9  C8        30.8680    0.0020   40.9650 C.3   523  INH523      0.0580
     10  C9        32.1230    0.3200   41.8370 C.3   523  INH523      0.0110
     11  C10       32.7010    1.6820   41.3170 C.3   523  INH523      0.0460
     12  H7        30.2840    4.7620   38.7030 H     523  INH523      0.1730
     13  C3        28.4340    0.6490   39.1740 C.3   523  INH523      0.1770
     14  C1        28.7760   -0.4220   38.1190 C.3   523  INH523      0.2980
     15  N1        29.8730    0.1140   37.2310 N.4   523  INH523     -0.0640
     16  H6        29.5460    0.9400   36.7550 H     523  INH523      0.2750
     17  H4        30.1290   -0.5850   36.5530 H     523  INH523      0.2750
     18  H5        30.6770    0.3470   37.7940 H     523  INH523      0.2750
     19  C2        27.4500   -0.7610   37.3850 C.2   523  INH523      0.1730
     20  O2        26.4650   -1.0840   38.1200 O.2   523  INH523     -0.6480
     21  O1        27.4360   -0.6750   36.1250 O.3   523  INH523     -0.7750
     22  H         28.1950   -0.3700   35.6680 H     523  INH523      0.1670
@<TRIPOS>BOND
     1    22    21    1
     2    21    19    1
     3    17    15    1
     4    16    15    1
     5    15    18    1
     6    15    14    1
     7    19    14    1
     8    19    20    2
     9     5     2    2
    10    14    13    1
    11    12     3    1
    12     2     3   ar
    13     2     1   ar
    14     3     7   ar
    15    13     1    1
    16     1     4   ar
    17     7     8    2
    18     7     6   ar
    19     4     6   ar
    20     4     9    1
    21     6    11    1
    22     9    10    1
    23    11    10    1
