@<TRIPOS>MOLECULE
/tmp/ewbell/vina_1syh_1syh_lig/vina/vina2.pdbqt
 22 23 0 0 0
SMALL
GASTEIGER

@<TRIPOS>ATOM
      1  N2        30.2710    2.1850   38.8170 N.ar  523  INH523     -0.3000
      2  C4        28.8890    2.1790   38.2600 C.ar  523  INH523      0.3290
      3  N3        28.3740    1.0040   37.8850 N.ar  523  INH523     -0.2750
      4  C5        30.9200    0.9590   39.0270 C.ar  523  INH523      0.0280
      5  O3        28.3070    3.2790   38.1540 O.2   523  INH523     -0.2460
      6  C6        30.3150   -0.2300   38.7110 C.ar  523  INH523      0.0330
      7  C7        28.9910   -0.2110   38.0540 C.ar  523  INH523      0.2570
      8  O4        28.4770   -1.2660   37.6620 O.2   523  INH523     -0.2670
      9  C8        32.3280    0.7560   39.5680 C.3   523  INH523      0.0580
     10  C9        32.5520   -0.7830   39.4310 C.3   523  INH523      0.0110
     11  C10       31.1570   -1.4160   39.0980 C.3   523  INH523      0.0460
     12  H7        27.4740    1.0100   37.4490 H     523  INH523      0.1730
     13  C3        30.9340    3.4650   39.0490 C.3   523  INH523      0.1770
     14  C1        30.7320    3.9680   40.4930 C.3   523  INH523      0.2980
     15  N1        29.5740    3.2150   41.1030 N.4   523  INH523     -0.0640
     16  H6        28.7150    3.7020   40.9050 H     523  INH523      0.2750
     17  H4        29.7020    3.1530   42.1000 H     523  INH523      0.2750
     18  H5        29.5340    2.2870   40.7110 H     523  INH523      0.2750
     19  C2        30.5350    5.5060   40.4030 C.2   523  INH523      0.1730
     20  O2        31.5180    6.2220   40.7700 O.2   523  INH523     -0.6480
     21  O1        29.4330    5.9330   39.9600 O.3   523  INH523     -0.7750
     22  H         28.9090    6.5080   40.4840 H     523  INH523      0.1670
@<TRIPOS>BOND
     1    12     3    1
     2     8     7    2
     3     3     7   ar
     4     3     2   ar
     5     7     6   ar
     6     5     2    2
     7     2     1   ar
     8     6     4   ar
     9     6    11    1
    10     1     4   ar
    11     1    13    1
    12     4     9    1
    13    13    14    1
    14    11    10    1
    15    10     9    1
    16    21    19    1
    17    21    22    1
    18    19    14    1
    19    19    20    2
    20    14    15    1
    21    18    15    1
    22    16    15    1
    23    15    17    1
