@<TRIPOS>MOLECULE
/tmp/ewbell/vina_1syh_1syh_lig/vina/vina1.pdbqt
 22 23 0 0 0
SMALL
GASTEIGER

@<TRIPOS>ATOM
      1  N2        21.8040   14.3550   23.4410 N.ar  523  INH523     -0.3000
      2  C4        22.8500   15.1810   22.7740 C.ar  523  INH523      0.3290
      3  N3        22.8930   15.1710   21.4380 N.ar  523  INH523     -0.2750
      4  C5        20.8510   13.7020   22.6450 C.ar  523  INH523      0.0280
      5  O3        23.6390   15.8110   23.5090 O.2   523  INH523     -0.2460
      6  C6        20.8790   13.7950   21.2780 C.ar  523  INH523      0.0330
      7  C7        21.9900   14.5250   20.6300 C.ar  523  INH523      0.2570
      8  O4        22.0960   14.5280   19.3970 O.2   523  INH523     -0.2670
      9  C8        19.7210   12.8060   23.1310 C.3   523  INH523      0.0580
     10  C9        19.1010   12.2520   21.8090 C.3   523  INH523      0.0110
     11  C10       19.7170   13.0890   20.6350 C.3   523  INH523      0.0460
     12  H7        23.6370   15.6710   20.9940 H     523  INH523      0.1730
     13  C3        21.8540   14.1860   24.8900 C.3   523  INH523      0.1770
     14  C1        23.0330   13.2930   25.3280 C.3   523  INH523      0.2980
     15  N1        22.6720   11.8540   25.0440 N.4   523  INH523     -0.0640
     16  H6        22.0880   11.8090   24.2240 H     523  INH523      0.2750
     17  H4        22.1750   11.4710   25.8320 H     523  INH523      0.2750
     18  H5        23.5150   11.3220   24.8870 H     523  INH523      0.2750
     19  C2        23.3020   13.6150   26.8220 C.2   523  INH523      0.1730
     20  O2        23.7660   14.7710   27.0750 O.2   523  INH523     -0.6480
     21  O1        23.0280   12.7260   27.6760 O.3   523  INH523     -0.7750
     22  H         23.7080   12.3630   28.2090 H     523  INH523      0.1670
@<TRIPOS>BOND
     1     8     7    2
     2     7     6   ar
     3     7     3   ar
     4    11     6    1
     5    11    10    1
     6    12     3    1
     7     6     4   ar
     8     3     2   ar
     9    10     9    1
    10     4     9    1
    11     4     1   ar
    12     2     1   ar
    13     2     5    2
    14     1    13    1
    15    16    15    1
    16    18    15    1
    17    13    14    1
    18    15    14    1
    19    15    17    1
    20    14    19    1
    21    19    20    2
    22    19    21    1
    23    21    22    1
