@<TRIPOS>MOLECULE
./ligand/1y0l_lig.pdb
 38 39 0 0 0
SMALL
GASTEIGER

@<TRIPOS>ATOM
      1  N1         4.6890  130.1450    2.5740 N.pl3 447  INH447     -0.2913
      2  C1         5.8510  130.1610    1.7020 C.3   447  INH447      0.2070
      3  N2         6.9520  129.7410    2.2210 N.pl3 447  INH447     -0.3056
      4  C2         7.4760  128.8560    4.5680 C.ar  447  INH447     -0.0358
      5  C3         6.9020  128.5710    5.8460 C.ar  447  INH447     -0.0457
      6  C4         5.4860  128.8250    6.0820 C.ar  447  INH447     -0.0457
      7  C5         4.6690  129.3520    5.0470 C.ar  447  INH447     -0.0356
      8  C6         5.2580  129.6320    3.7610 C.ar  447  INH447      0.0538
      9  C7         6.6390  129.3900    3.5270 C.ar  447  INH447      0.0514
     10  C8         7.8450  127.9910    6.9310 C.3   447  INH447     -0.0394
     11  C9         4.8020  128.5460    7.4270 C.3   447  INH447     -0.0394
     12  N3         5.8000  130.6100    0.3560 N.3   447  INH447     -0.2904
     13  C10        3.2980  130.5480    2.2950 C.3   447  INH447      0.0156
     14  C11        2.4600  129.3520    1.8160 C.3   447  INH447     -0.0366
     15  C12        0.9560  129.6300    1.8810 C.3   447  INH447     -0.0414
     16  C13        0.3730  130.0010    0.5110 C.3   447  INH447      0.0492
     17  C14       -0.9500  130.7620    0.6200 C.2   447  INH447      0.3560
     18  O1        -0.9300  132.0150    0.6180 O.co2 447  INH447     -0.2464
     19  O2        -2.0200  130.1160    0.7060 O.co2 447  INH447     -0.2464
     20  H1         8.5290  128.6720    4.3860 H     447  INH447      0.0639
     21  H2         3.6160  129.5410    5.2210 H     447  INH447      0.0639
     22  H3         8.8600  127.8890    6.5190 H     447  INH447      0.0278
     23  H4         7.4770  127.0040    7.2470 H     447  INH447      0.0278
     24  H5         7.8670  128.6680    7.7970 H     447  INH447      0.0278
     25  H6         5.5400  128.1430    8.1370 H     447  INH447      0.0278
     26  H7         3.9940  127.8130    7.2830 H     447  INH447      0.0278
     27  H8         4.3820  129.4810    7.8260 H     447  INH447      0.0278
     28  H9         6.6520  130.6020   -0.2220 H     447  INH447      0.1219
     29  H10        4.9110  130.9440   -0.0420 H     447  INH447      0.1219
     30  H11        3.2980  131.3220    1.5140 H     447  INH447      0.0465
     31  H12        2.8510  130.9550    3.2140 H     447  INH447      0.0465
     32  H13        2.6870  128.4840    2.4530 H     447  INH447      0.0280
     33  H14        2.7320  129.1240    0.7750 H     447  INH447      0.0280
     34  H15        0.7800  130.4630    2.5780 H     447  INH447      0.0271
     35  H16        0.4450  128.7290    2.2510 H     447  INH447      0.0271
     36  H17        0.2020  129.0770   -0.0610 H     447  INH447      0.0379
     37  H18        1.0990  130.6320   -0.0220 H     447  INH447      0.0379
     38  H19        7.8720  129.6790    1.7630 H     447  INH447      0.1496
@<TRIPOS>BOND
     1     1     8    1
     2     1    13    1
     3     1     2    1
     4     2    12    1
     5     2     3    1
     6     3    38    1
     7     3     9    1
     8     4    20    1
     9     4     9   ar
    10     4     5   ar
    11     5    10    1
    12     5     6   ar
    13     6    11    1
    14     6     7   ar
    15     7    21    1
    16     7     8   ar
    17     8     9   ar
    18    10    24    1
    19    10    23    1
    20    10    22    1
    21    11    27    1
    22    11    26    1
    23    11    25    1
    24    12    29    1
    25    12    28    1
    26    13    31    1
    27    13    30    1
    28    13    14    1
    29    14    33    1
    30    14    32    1
    31    14    15    1
    32    15    35    1
    33    15    34    1
    34    15    16    1
    35    16    37    1
    36    16    36    1
    37    16    17    1
    38    17    19   ar
    39    17    18   ar
