@<TRIPOS>MOLECULE
/tmp/ewbell/vina_1y0l_1y0l_lig/vina/vina1.pdbqt
 23 24 0 0 0
SMALL
GASTEIGER

@<TRIPOS>ATOM
      1  N1         4.2650  130.1540    2.2570 N.pl3 447  INH447     -0.1810
      2  C1         5.3770  130.1820    1.3220 C.3   447  INH447      0.6790
      3  N2         6.5170  129.8080    1.7900 N.pl3 447  INH447     -0.1900
      4  C2         7.1940  128.9980    4.1250 C.ar  447  INH447      0.0390
      5  C3         6.6990  128.7290    5.4390 C.ar  447  INH447     -0.0540
      6  C4         5.2900  128.9470    5.7460 C.ar  447  INH447     -0.0540
      7  C5         4.4030  129.4240    4.7450 C.ar  447  INH447      0.0390
      8  C6         4.9130  129.6880    3.4230 C.ar  447  INH447      0.0790
      9  C7         6.2860  129.4810    3.1190 C.ar  447  INH447      0.0770
     10  C8         7.7160  128.2040    6.4840 C.3   447  INH447      0.0490
     11  C9         4.6890  128.6830    7.1330 C.3   447  INH447      0.0490
     12  N3         5.2400  130.5950   -0.0290 N.3   447  INH447     -0.2340
     13  H9         6.0590  130.5980   -0.6520 H     447  INH447      0.1740
     14  H10        4.3210  130.8930   -0.3850 H     447  INH447      0.1740
     15  H19        7.4120  129.7610    1.2840 H     447  INH447      0.1840
     16  C10        2.8490  130.5090    2.0450 C.3   447  INH447      0.1480
     17  C11        2.0870  129.3630    1.3630 C.3   447  INH447      0.0210
     18  C12        1.6030  129.7370   -0.0410 C.3   447  INH447      0.0120
     19  C13        0.1770  129.2430   -0.3160 C.3   447  INH447      0.1100
     20  C14       -0.8160  129.6780    0.7650 C.2   447  INH447      0.1390
     21  O2        -0.9790  130.8990    0.9870 O.2   447  INH447     -0.6500
     22  O1        -1.4390  128.7970    1.4030 O.3   447  INH447     -0.7760
     23  H         -2.1010  128.2890    0.9770 H     447  INH447      0.1670
@<TRIPOS>BOND
     1    13    12    1
     2    14    12    1
     3    19    18    1
     4    19    20    1
     5    18    17    1
     6    12     2    1
     7    20    21    2
     8    20    22    1
     9    23    22    1
    10    15     3    1
    11     2     3    1
    12     2     1    1
    13    17    16    1
    14     3     9    1
    15    16     1    1
    16     1     8    1
    17     9     8   ar
    18     9     4   ar
    19     8     7   ar
    20     4     5   ar
    21     7     6   ar
    22     5     6   ar
    23     5    10    1
    24     6    11    1
