@<TRIPOS>MOLECULE
/tmp/ewbell/vina_1y0l_1y0l_lig/vina/vina5.pdbqt
 23 24 0 0 0
SMALL
GASTEIGER

@<TRIPOS>ATOM
      1  N1         3.8400  130.4030    0.6850 N.pl3 447  INH447     -0.1810
      2  C1         2.4170  130.6160    0.8810 C.3   447  INH447      0.6790
      3  N2         1.9780  130.4350    2.0780 N.pl3 447  INH447     -0.1900
      4  C2         3.1930  129.7560    4.2300 C.ar  447  INH447      0.0390
      5  C3         4.4700  129.4130    4.7720 C.ar  447  INH447     -0.0540
      6  C4         5.6440  129.3840    3.9080 C.ar  447  INH447     -0.0540
      7  C5         5.5290  129.6980    2.5280 C.ar  447  INH447      0.0390
      8  C6         4.2360  130.0470    1.9940 C.ar  447  INH447      0.0790
      9  C7         3.0870  130.0730    2.8310 C.ar  447  INH447      0.0770
     10  C8         4.5310  129.0860    6.2860 C.3   447  INH447      0.0490
     11  C9         7.0460  129.0220    4.4180 C.3   447  INH447      0.0490
     12  N3         1.5410  130.9990   -0.1700 N.3   447  INH447     -0.2340
     13  H9         0.5390  131.1370    0.0200 H     447  INH447      0.1740
     14  H10        1.9090  131.1370   -1.1210 H     447  INH447      0.1740
     15  H19        1.0080  130.5370    2.4070 H     447  INH447      0.1840
     16  C10        4.6500  130.5290   -0.5410 C.3   447  INH447      0.1480
     17  C11        4.9360  132.0030   -0.8670 C.3   447  INH447      0.0210
     18  C12        4.6890  132.3340   -2.3410 C.3   447  INH447      0.0120
     19  C13        3.5850  133.3830   -2.5250 C.3   447  INH447      0.1100
     20  C14        4.1320  134.8120   -2.5750 C.2   447  INH447      0.1390
     21  O2         3.3740  135.7650   -2.2860 O.2   447  INH447     -0.6500
     22  O1         5.3270  134.9910   -2.9080 O.3   447  INH447     -0.7760
     23  H          5.9670  134.3280   -2.7360 H     447  INH447      0.1670
@<TRIPOS>BOND
     1    22    23    1
     2    22    20    1
     3    20    19    1
     4    20    21    2
     5    19    18    1
     6    18    17    1
     7    14    12    1
     8    17    16    1
     9    16     1    1
    10    12    13    1
    11    12     2    1
    12     1     2    1
    13     1     8    1
    14     2     3    1
    15     8     7   ar
    16     8     9   ar
    17     3    15    1
    18     3     9    1
    19     7     6   ar
    20     9     4   ar
    21     6    11    1
    22     6     5   ar
    23     4     5   ar
    24     5    10    1
