@<TRIPOS>MOLECULE
/tmp/ewbell/vina_1y0l_1y0l_lig/vina/vina3.pdbqt
 23 24 0 0 0
SMALL
GASTEIGER

@<TRIPOS>ATOM
      1  N1         4.3630  130.1390    2.3240 N.pl3 447  INH447     -0.1810
      2  C1         5.4770  130.1440    1.3920 C.3   447  INH447      0.6790
      3  N2         6.6080  129.7470    1.8620 N.pl3 447  INH447     -0.1900
      4  C2         7.2630  128.9240    4.1990 C.ar  447  INH447      0.0390
      5  C3         6.7600  128.6650    5.5120 C.ar  447  INH447     -0.0540
      6  C4         5.3560  128.9120    5.8150 C.ar  447  INH447     -0.0540
      7  C5         4.4800  129.4060    4.8120 C.ar  447  INH447      0.0390
      8  C6         4.9980  129.6600    3.4910 C.ar  447  INH447      0.0790
      9  C7         6.3680  129.4250    3.1910 C.ar  447  INH447      0.0770
     10  C8         7.7640  128.1210    6.5590 C.3   447  INH447      0.0490
     11  C9         4.7460  128.6590    7.2010 C.3   447  INH447      0.0490
     12  N3         5.3510  130.5600    0.0400 N.3   447  INH447     -0.2340
     13  H9         6.1720  130.5460   -0.5820 H     447  INH447      0.1740
     14  H10        4.4390  130.8760   -0.3190 H     447  INH447      0.1740
     15  H19        7.5040  129.6830    1.3580 H     447  INH447      0.1840
     16  C10        2.9550  130.5220    2.1080 C.3   447  INH447      0.1480
     17  C11        2.1180  129.3200    1.6450 C.3   447  INH447      0.0210
     18  C12        0.8630  129.7430    0.8770 C.3   447  INH447      0.0120
     19  C13        1.0640  129.6820   -0.6430 C.3   447  INH447      0.1100
     20  C14        0.0590  128.7580   -1.3340 C.2   447  INH447      0.1390
     21  O2         0.1040  127.5270   -1.1060 O.2   447  INH447     -0.6500
     22  O1        -0.7850  129.2570   -2.1150 O.3   447  INH447     -0.7760
     23  H         -0.7070  130.1530   -2.3790 H     447  INH447      0.1670
@<TRIPOS>BOND
     1    23    22    1
     2    22    20    1
     3    20    21    2
     4    20    19    1
     5    19    18    1
     6    13    12    1
     7    14    12    1
     8    12     2    1
     9    18    17    1
    10    15     3    1
    11     2     3    1
    12     2     1    1
    13    17    16    1
    14     3     9    1
    15    16     1    1
    16     1     8    1
    17     9     8   ar
    18     9     4   ar
    19     8     7   ar
    20     4     5   ar
    21     7     6   ar
    22     5     6   ar
    23     5    10    1
    24     6    11    1
