@<TRIPOS>MOLECULE
/tmp/ewbell/vina_1y0l_1y0l_lig/vina/vina2.pdbqt
 23 24 0 0 0
SMALL
GASTEIGER

@<TRIPOS>ATOM
      1  N1         4.3650  130.0870    2.4610 N.pl3 447  INH447     -0.1810
      2  C1         5.4630  130.1330    1.5110 C.3   447  INH447      0.6790
      3  N2         6.6100  129.7530    1.9550 N.pl3 447  INH447     -0.1900
      4  C2         7.3230  128.9040    4.2650 C.ar  447  INH447      0.0390
      5  C3         6.8480  128.6110    5.5820 C.ar  447  INH447     -0.0540
      6  C4         5.4440  128.8220    5.9140 C.ar  447  INH447     -0.0540
      7  C5         4.5410  129.3140    4.9340 C.ar  447  INH447      0.0390
      8  C6         5.0310  129.6020    3.6090 C.ar  447  INH447      0.0790
      9  C7         6.3990  129.4030    3.2820 C.ar  447  INH447      0.0770
     10  C8         7.8820  128.0710    6.6020 C.3   447  INH447      0.0490
     11  C9         4.8640  128.5320    7.3040 C.3   447  INH447      0.0490
     12  N3         5.3040  130.5690    0.1690 N.3   447  INH447     -0.2340
     13  H9         6.1140  130.5840   -0.4660 H     447  INH447      0.1740
     14  H10        4.3800  130.8710   -0.1690 H     447  INH447      0.1740
     15  H19        7.4980  129.7160    1.4350 H     447  INH447      0.1840
     16  C10        2.9450  130.4430    2.2770 C.3   447  INH447      0.1480
     17  C11        2.2380  129.4400    1.3530 C.3   447  INH447      0.0210
     18  C12        1.7500  130.0860    0.0540 C.3   447  INH447      0.0120
     19  C13        1.2730  131.5290    0.2660 C.3   447  INH447      0.1100
     20  C14        2.2370  132.5610   -0.3230 C.2   447  INH447      0.1390
     21  O2         3.0910  132.1900   -1.1610 O.2   447  INH447     -0.6500
     22  O1         2.1500  133.7540    0.0510 O.3   447  INH447     -0.7760
     23  H          1.5220  134.3250   -0.3450 H     447  INH447      0.1670
@<TRIPOS>BOND
     1    21    20    2
     2    13    12    1
     3    23    22    1
     4    20    22    1
     5    20    19    1
     6    14    12    1
     7    18    19    1
     8    18    17    1
     9    12     2    1
    10    17    16    1
    11    15     3    1
    12     2     3    1
    13     2     1    1
    14     3     9    1
    15    16     1    1
    16     1     8    1
    17     9     8   ar
    18     9     4   ar
    19     8     7   ar
    20     4     5   ar
    21     7     6   ar
    22     5     6   ar
    23     5    10    1
    24     6    11    1
