@<TRIPOS>MOLECULE
/tmp/ewbell/vina_1y0l_1y0l_lig/vina/vina4.pdbqt
 23 24 0 0 0
SMALL
GASTEIGER

@<TRIPOS>ATOM
      1  N1         3.5800  130.4420    1.5380 N.pl3 447  INH447     -0.1810
      2  C1         4.6470  130.5120    0.5530 C.3   447  INH447      0.6790
      3  N2         5.8220  130.1900    0.9700 N.pl3 447  INH447     -0.1900
      4  C2         6.6380  129.4260    3.2760 C.ar  447  INH447      0.0390
      5  C3         6.2150  129.1450    4.6120 C.ar  447  INH447     -0.0540
      6  C4         4.8140  129.3040    4.9820 C.ar  447  INH447     -0.0540
      7  C5         3.8620  129.7350    4.0210 C.ar  447  INH447      0.0390
      8  C6         4.3000  130.0130    2.6750 C.ar  447  INH447      0.0790
      9  C7         5.6650  129.8630    2.3100 C.ar  447  INH447      0.0770
     10  C8         7.3010  128.6720    5.6130 C.3   447  INH447      0.0490
     11  C9         4.2880  129.0230    6.3960 C.3   447  INH447      0.0490
     12  N3         4.4300  130.9090   -0.7920 N.3   447  INH447     -0.2340
     13  H9         5.2200  130.9430   -1.4530 H     447  INH447      0.1740
     14  H10        3.4840  131.1650   -1.1080 H     447  INH447      0.1740
     15  H19        6.6940  130.1790    0.4240 H     447  INH447      0.1840
     16  C10        2.1420  130.7340    1.3890 C.3   447  INH447      0.1480
     17  C11        1.3770  129.5030    0.8790 C.3   447  INH447      0.0210
     18  C12        0.7740  129.7250   -0.5110 C.3   447  INH447      0.0120
     19  C13       -0.7060  129.3250   -0.5730 C.3   447  INH447      0.1100
     20  C14       -1.4200  129.4970    0.7690 C.2   447  INH447      0.1390
     21  O2        -1.7990  128.4790    1.3940 O.2   447  INH447     -0.6500
     22  O1        -1.6110  130.6550    1.2090 O.3   447  INH447     -0.7760
     23  H         -2.0680  130.7800    2.0180 H     447  INH447      0.1670
@<TRIPOS>BOND
     1    13    12    1
     2    14    12    1
     3    12     2    1
     4    19    18    1
     5    19    20    1
     6    18    17    1
     7    15     3    1
     8     2     3    1
     9     2     1    1
    10    20    22    1
    11    20    21    2
    12    17    16    1
    13     3     9    1
    14    22    23    1
    15    16     1    1
    16     1     8    1
    17     9     8   ar
    18     9     4   ar
    19     8     7   ar
    20     4     5   ar
    21     7     6   ar
    22     5     6   ar
    23     5    10    1
    24     6    11    1
