@<TRIPOS>MOLECULE
./ligand/1b6l_lig.pdb
 83 85 0 0 0
SMALL
GASTEIGER

@<TRIPOS>ATOM
      1  C1         6.1160    2.8190    8.8070 C.3   203  INH203     -0.0104
      2  C2         4.2430    3.2310   10.4450 C.2   203  INH203      0.2137
      3  O1         4.1710    4.1370   11.2750 O.2   203  INH203     -0.2758
      4  C3         4.7890    3.4970    9.0560 C.3   203  INH203      0.0270
      5  N1         3.8770    1.9790   10.7050 N.am  203  INH203     -0.3035
      6  C4         3.3110    1.5880   12.0060 C.3   203  INH203      0.1075
      7  C5         3.9670    0.3640   12.6350 C.2   203  INH203      0.2341
      8  O2         3.9310   -0.7320   12.0750 O.2   203  INH203     -0.2738
      9  C6         1.8140    1.3240   11.8550 C.3   203  INH203      0.0506
     10  C7         1.0770    2.5020   11.2770 C.2   203  INH203      0.2127
     11  O3         0.5120    3.3110   12.0060 O.2   203  INH203     -0.2760
     12  N2         1.0980    2.6210    9.9530 N.am  203  INH203     -0.3293
     13  N3         4.5560    0.5590   13.8100 N.am  203  INH203     -0.3079
     14  C8         5.2190   -0.5330   14.5340 C.3   203  INH203      0.0580
     15  C9         6.7350   -0.3200   14.5350 C.3   203  INH203     -0.0066
     16  C10        7.2100    0.4410   13.3290 C.ar  203  INH203     -0.0453
     17  C11        7.3330    1.8230   13.3770 C.ar  203  INH203     -0.0551
     18  C12        7.6760    2.5460   12.2630 C.ar  203  INH203     -0.0197
     19  C13        7.4640   -0.2060   12.1200 C.ar  203  INH203     -0.0551
     20  C14        7.8110    0.5160   10.9900 C.ar  203  INH203     -0.0197
     21  C15        7.9150    1.8950   11.0740 C.ar  203  INH203      0.1205
     22  O4         8.2220    2.6510    9.9710 O.3   203  INH203     -0.4920
     23  C16        7.2420    3.5620    9.5120 C.3   203  INH203      0.0900
     24  C17        4.6850   -0.6120   15.9760 C.3   203  INH203      0.1133
     25  O5         5.0950    0.5410   16.7170 O.3   203  INH203     -0.3847
     26  C18        5.1720   -1.8710   16.6730 C.3   203  INH203     -0.0027
     27  N4         4.4230   -3.0340   16.1410 N.4   203  INH203      0.2458
     28  C19        5.1850   -4.2660   16.4870 C.3   203  INH203      0.0568
     29  C20        4.4110   -5.5030   16.0160 C.3   203  INH203     -0.0008
     30  C21        2.9920   -5.5790   16.5630 C.3   203  INH203     -0.0427
     31  C22        2.2510   -4.2800   16.2880 C.3   203  INH203     -0.0123
     32  C23        3.0580   -3.0800   16.7610 C.3   203  INH203     -0.0311
     33  C24        6.5680   -4.2310   15.8390 C.2   203  INH203      0.2617
     34  O6         6.7200   -3.7110   14.7320 O.2   203  INH203     -0.2696
     35  C25        8.9620   -4.8510   16.0860 C.3   203  INH203      0.0264
     36  C26        9.4410   -3.4850   15.6080 C.3   203  INH203     -0.0442
     37  C27        9.8500   -5.3020   17.2420 C.3   203  INH203     -0.0442
     38  C28        9.0930   -5.8660   14.9560 C.3   203  INH203     -0.0442
     39  N5         7.5630   -4.7800   16.5410 N.am  203  INH203     -0.3059
     40  H1         6.0710    1.7880    9.1870 H     203  INH203      0.0302
     41  H2         6.3160    2.8030    7.7250 H     203  INH203      0.0302
     42  H3         4.0620    3.1290    8.3170 H     203  INH203      0.0359
     43  H4         4.9200    4.5820    8.9320 H     203  INH203      0.0359
     44  H5         3.9900    1.2830    9.9960 H     203  INH203      0.1495
     45  H6         3.4510    2.4330   12.6960 H     203  INH203      0.0599
     46  H7         1.3940    1.0970   12.8460 H     203  INH203      0.0381
     47  H8         1.6730    0.4590   11.1900 H     203  INH203      0.0381
     48  H9         0.6260    3.3840    9.5120 H     203  INH203      0.1449
     49  H10        1.5860    1.9470    9.3980 H     203  INH203      0.1449
     50  H11        4.5480    1.4740   14.2120 H     203  INH203      0.1491
     51  H12        4.9970   -1.4820   14.0240 H     203  INH203      0.0529
     52  H13        7.2290   -1.3030   14.5490 H     203  INH203      0.0332
     53  H14        7.0120    0.2430   15.4390 H     203  INH203      0.0332
     54  H15        7.1550    2.3410   14.3130 H     203  INH203      0.0621
     55  H16        7.7590    3.6250   12.3190 H     203  INH203      0.0654
     56  H17        7.3890   -1.2860   12.0640 H     203  INH203      0.0621
     57  H18        7.9990    0.0080   10.0510 H     203  INH203      0.0654
     58  H19        6.8310    4.1140   10.3700 H     203  INH203      0.0696
     59  H20        7.7060    4.2690    8.8090 H     203  INH203      0.0696
     60  H21        3.5860   -0.6360   15.9390 H     203  INH203      0.0666
     61  H22        6.0430    0.5720   16.7550 H     203  INH203      0.2101
     62  H23        4.9990   -1.7840   17.7560 H     203  INH203      0.0841
     63  H24        6.2470   -2.0060   16.4830 H     203  INH203      0.0841
     64  H25        4.3350   -2.9570   15.1400 H     203  INH203      0.2042
     65  H26        5.3060   -4.3150   17.5790 H     203  INH203      0.0950
     66  H27        4.9580   -6.4000   16.3420 H     203  INH203      0.0325
     67  H28        4.3600   -5.4840   14.9170 H     203  INH203      0.0325
     68  H29        3.0300   -5.7520   17.6490 H     203  INH203      0.0269
     69  H30        2.4600   -6.4100   16.0770 H     203  INH203      0.0269
     70  H31        1.2870   -4.2970   16.8180 H     203  INH203      0.0317
     71  H32        2.0730   -4.1900   15.2060 H     203  INH203      0.0317
     72  H33        2.5160   -2.1610   16.4930 H     203  INH203      0.0815
     73  H34        3.1670   -3.1350   17.8540 H     203  INH203      0.0815
     74  H35       10.4860   -3.5590   15.2730 H     203  INH203      0.0250
     75  H36        9.3720   -2.7620   16.4340 H     203  INH203      0.0250
     76  H37        8.8110   -3.1480   14.7720 H     203  INH203      0.0250
     77  H38       10.8950   -5.3550   16.9030 H     203  INH203      0.0250
     78  H39        9.5260   -6.2950   17.5880 H     203  INH203      0.0250
     79  H40        9.7690   -4.5810   18.0690 H     203  INH203      0.0250
     80  H41       10.1410   -5.9110   14.6240 H     203  INH203      0.0250
     81  H42        8.4540   -5.5620   14.1140 H     203  INH203      0.0250
     82  H43        8.7790   -6.8570   15.3150 H     203  INH203      0.0250
     83  H44        7.3430   -5.1690   17.4360 H     203  INH203      0.1494
@<TRIPOS>BOND
     1     1     4    1
     2     1    41    1
     3     1    40    1
     4     1    23    1
     5     2     5   am
     6     2     4    1
     7     2     3    2
     8     4    43    1
     9     4    42    1
    10     5     6    1
    11     5    44    1
    12     6     7    1
    13     6    45    1
    14     6     9    1
    15     7    13   am
    16     7     8    2
    17     9    47    1
    18     9    46    1
    19     9    10    1
    20    10    12   am
    21    10    11    2
    22    12    49    1
    23    12    48    1
    24    13    14    1
    25    13    50    1
    26    14    24    1
    27    14    51    1
    28    14    15    1
    29    15    16    1
    30    15    53    1
    31    15    52    1
    32    16    17   ar
    33    16    19   ar
    34    17    18   ar
    35    17    54    1
    36    18    21   ar
    37    18    55    1
    38    19    56    1
    39    19    20   ar
    40    20    21   ar
    41    20    57    1
    42    21    22    1
    43    22    23    1
    44    23    59    1
    45    23    58    1
    46    24    26    1
    47    24    60    1
    48    24    25    1
    49    25    61    1
    50    26    27    1
    51    26    63    1
    52    26    62    1
    53    27    28    1
    54    27    64    1
    55    27    32    1
    56    28    33    1
    57    28    65    1
    58    28    29    1
    59    29    30    1
    60    29    67    1
    61    29    66    1
    62    30    31    1
    63    30    69    1
    64    30    68    1
    65    31    32    1
    66    31    71    1
    67    31    70    1
    68    32    73    1
    69    32    72    1
    70    33    39   am
    71    33    34    2
    72    35    39    1
    73    35    38    1
    74    35    37    1
    75    35    36    1
    76    36    76    1
    77    36    75    1
    78    36    74    1
    79    37    79    1
    80    37    78    1
    81    37    77    1
    82    38    82    1
    83    38    81    1
    84    38    80    1
    85    39    83    1
