@<TRIPOS>MOLECULE
/tmp/ewbell/vina_1b6l_1b6l_lig/vina/vina3.pdbqt
 46 48 0 0 0
SMALL
GASTEIGER

@<TRIPOS>ATOM
      1  C1         4.7960   -0.9750   14.2860 C.3   203  INH203      0.0360
      2  C2         6.0220   -3.0600   13.5720 C.2   203  INH203      0.2180
      3  O1         5.6970   -3.8410   12.6780 O.2   203  INH203     -0.2740
      4  C3         5.8590   -1.5640   13.3890 C.3   203  INH203      0.1050
      5  N1         6.5070   -3.4610   14.7440 N.am  203  INH203     -0.3470
      6  C4         6.7360   -4.8840   15.0450 C.3   203  INH203      0.1850
      7  C5         6.1470   -5.3470   16.3730 C.2   203  INH203      0.2410
      8  O2         6.5300   -4.8630   17.4390 O.2   203  INH203     -0.2710
      9  N3         5.2220   -6.2990   16.2990 N.am  203  INH203     -0.3520
     10  C8         4.5780   -6.8460   17.4990 C.3   203  INH203      0.1190
     11  C9         3.1120   -6.4090   17.5550 C.3   203  INH203      0.0660
     12  C10        2.8780   -5.0890   16.8750 C.ar  203  INH203     -0.0560
     13  C11        2.5120   -5.0470   15.5360 C.ar  203  INH203      0.0100
     14  C12        2.3830   -3.8540   14.8710 C.ar  203  INH203      0.0370
     15  C13        3.0960   -3.8830   17.5410 C.ar  203  INH203      0.0100
     16  C14        2.9680   -2.6740   16.8780 C.ar  203  INH203      0.0370
     17  C15        2.6100   -2.6720   15.5390 C.ar  203  INH203      0.0680
     18  O4         2.5060   -1.4990   14.8350 O.3   203  INH203     -0.3510
     19  C16        3.4050   -1.3020   13.7610 C.3   203  INH203      0.1760
     20  H5         6.7230   -2.7770   15.4400 H     203  INH203      0.1630
     21  H11        4.9580   -6.6510   15.4020 H     203  INH203      0.1630
     22  C17        4.6820   -8.3820   17.5010 C.3   203  INH203      0.1670
     23  C18        6.0550   -8.8390   17.9640 C.3   203  INH203      0.2690
     24  N4         6.5340   -9.9120   17.0600 N.4   203  INH203     -0.0560
     25  C19        7.5820  -10.6840   17.7830 C.3   203  INH203      0.2790
     26  C20        8.0590  -11.8520   16.9100 C.3   203  INH203      0.0430
     27  C21        6.9350  -12.7710   16.4550 C.3   203  INH203      0.0040
     28  C22        5.8240  -11.9630   15.8020 C.3   203  INH203      0.0280
     29  C23        5.3890  -10.8110   16.6970 C.3   203  INH203      0.2360
     30  H25        6.9230   -9.5080   16.2230 H     203  INH203      0.2810
     31  C24        8.7580   -9.7750   18.1360 C.2   203  INH203      0.2490
     32  N5         9.2840   -9.9360   19.3530 N.am  203  INH203     -0.3510
     33  H44       10.0450   -9.3420   19.6150 H     203  INH203      0.1630
     34  O6         9.1680   -8.9480   17.3200 O.2   203  INH203     -0.2710
     35  C25        8.8190  -10.9290   20.3360 C.3   203  INH203      0.0220
     36  C28        9.3200  -10.5620   21.7280 C.3   203  INH203      0.0370
     37  C27        9.3770  -12.3030   19.9720 C.3   203  INH203      0.0370
     38  C26        7.2970  -11.0080   20.3410 C.3   203  INH203      0.0370
     39  O5         3.6740   -8.9440   18.3480 O.3   203  INH203     -0.3920
     40  H22        2.8230   -8.8340   17.9420 H     203  INH203      0.2100
     41  C6         8.2360   -5.1740   15.0410 C.3   203  INH203      0.1370
     42  C7         9.0580   -3.9580   15.3700 C.2   203  INH203      0.2170
     43  N2         9.4490   -3.8340   16.6360 N.am  203  INH203     -0.3700
     44  H10        9.1940   -4.5280   17.3080 H     203  INH203      0.1590
     45  H9         9.9970   -3.0450   16.9140 H     203  INH203      0.1590
     46  O3         9.3250   -3.1250   14.5100 O.2   203  INH203     -0.2740
@<TRIPOS>BOND
     1     3     2    2
     2     4     2    1
     3     4     1    1
     4     2     5   am
     5    19     1    1
     6    19    18    1
     7    46    42    2
     8     5     6    1
     9     5    20    1
    10    18    17    1
    11    14    13   ar
    12    14    17   ar
    13    41     6    1
    14    41    42    1
    15     6     7    1
    16    42    43   am
    17    21     9    1
    18    13    12   ar
    19    17    16   ar
    20    28    27    1
    21    28    29    1
    22    30    24    1
    23     9     7   am
    24     9    10    1
    25     7     8    2
    26    27    26    1
    27    43    45    1
    28    43    44    1
    29    29    24    1
    30    12    15   ar
    31    12    11    1
    32    16    15   ar
    33    26    25    1
    34    24    25    1
    35    24    23    1
    36    34    31    2
    37    10    22    1
    38    10    11    1
    39    22    23    1
    40    22    39    1
    41    25    31    1
    42    40    39    1
    43    31    32   am
    44    32    33    1
    45    32    35    1
    46    37    35    1
    47    35    38    1
    48    35    36    1
