@<TRIPOS>MOLECULE
/tmp/ewbell/vina_1b6l_1b6l_lig/vina/vina4.pdbqt
 46 48 0 0 0
SMALL
GASTEIGER

@<TRIPOS>ATOM
      1  C1         5.4070   -1.6310   16.3260 C.3   203  INH203      0.0360
      2  C2         7.1040   -3.4290   15.8290 C.2   203  INH203      0.2180
      3  O1         7.2890   -3.9950   14.7510 O.2   203  INH203     -0.2740
      4  C3         6.8170   -1.9410   15.8800 C.3   203  INH203      0.1050
      5  N1         7.1210   -4.0670   16.9950 N.am  203  INH203     -0.3470
      6  C4         7.4090   -5.5070   17.0900 C.3   203  INH203      0.1850
      7  C5         6.4030   -6.2960   17.9210 C.2   203  INH203      0.2410
      8  O2         6.2420   -6.0550   19.1180 O.2   203  INH203     -0.2710
      9  N3         5.7370   -7.2490   17.2770 N.am  203  INH203     -0.3520
     10  C8         4.7440   -8.0920   17.9550 C.3   203  INH203      0.1190
     11  C9         3.3370   -7.7530   17.4560 C.3   203  INH203      0.0660
     12  C10        3.2140   -6.3250   17.0060 C.ar  203  INH203     -0.0560
     13  C11        3.4250   -5.9900   15.6750 C.ar  203  INH203      0.0100
     14  C12        3.4090   -4.6840   15.2580 C.ar  203  INH203      0.0370
     15  C13        2.9640   -5.2980   17.9160 C.ar  203  INH203      0.0100
     16  C14        2.9460   -3.9760   17.5040 C.ar  203  INH203      0.0370
     17  C15        3.1690   -3.6800   16.1690 C.ar  203  INH203      0.0680
     18  O4         3.1950   -2.3820   15.7260 O.3   203  INH203     -0.3510
     19  C16        4.4150   -1.8960   15.2020 C.3   203  INH203      0.1760
     20  H5         6.9330   -3.5540   17.8320 H     203  INH203      0.1630
     21  H11        5.9160   -7.3950   16.3050 H     203  INH203      0.1630
     22  C17        5.0590   -9.5790   17.7100 C.3   203  INH203      0.1670
     23  C18        6.0780  -10.0970   18.7110 C.3   203  INH203      0.2690
     24  N4         7.2440  -10.6370   17.9720 N.4   203  INH203     -0.0560
     25  C19        8.2780  -11.0270   18.9710 C.3   203  INH203      0.2790
     26  C20        9.4780  -11.6580   18.2540 C.3   203  INH203      0.0430
     27  C21        9.1090  -12.8440   17.3740 C.3   203  INH203      0.0040
     28  C22        7.9860  -12.4640   16.4210 C.3   203  INH203      0.0280
     29  C23        6.8220  -11.8330   17.1720 C.3   203  INH203      0.2360
     30  H25        7.6150   -9.9330   17.3540 H     203  INH203      0.2810
     31  C24        8.7240   -9.8050   19.7730 C.2   203  INH203      0.2490
     32  N5         8.8930   -9.9910   21.0850 N.am  203  INH203     -0.3510
     33  H44        9.1700   -9.2030   21.6360 H     203  INH203      0.1630
     34  O6         8.9030   -8.7250   19.2070 O.2   203  INH203     -0.2710
     35  C25        8.7000  -11.2770   21.7750 C.3   203  INH203      0.0220
     36  C28        7.3910  -11.9180   21.3310 C.3   203  INH203      0.0370
     37  C27        8.6310  -11.0390   23.2820 C.3   203  INH203      0.0370
     38  C26        9.8600  -12.2220   21.4850 C.3   203  INH203      0.0370
     39  O5         3.8600  -10.3570   17.7950 O.3   203  INH203     -0.3920
     40  H22        3.1420   -9.8020   18.0710 H     203  INH203      0.2100
     41  C6         8.8040   -5.7140   17.6770 C.3   203  INH203      0.1370
     42  C7         9.7400   -6.3890   16.7110 C.2   203  INH203      0.2170
     43  N2         9.3030   -6.5260   15.4620 N.am  203  INH203     -0.3700
     44  H10        8.3970   -6.1870   15.2090 H     203  INH203      0.1590
     45  H9         9.8810   -6.9680   14.7760 H     203  INH203      0.1590
     46  O3        10.8330   -6.8060   17.0790 O.2   203  INH203     -0.2740
@<TRIPOS>BOND
     1     3     2    2
     2    45    43    1
     3    19    18    1
     4    19     1    1
     5    44    43    1
     6    14    13   ar
     7    14    17   ar
     8    43    42   am
     9    13    12   ar
    10    18    17    1
    11     2     4    1
    12     2     5   am
    13     4     1    1
    14    17    16   ar
    15    21     9    1
    16    28    29    1
    17    28    27    1
    18    42    46    2
    19    42    41    1
    20     5     6    1
    21     5    20    1
    22    12    11    1
    23    12    15   ar
    24     6    41    1
    25     6     7    1
    26    29    24    1
    27     9     7   am
    28     9    10    1
    29    30    24    1
    30    27    26    1
    31    11    10    1
    32    16    15   ar
    33    22    39    1
    34    22    10    1
    35    22    23    1
    36    39    40    1
    37     7     8    2
    38    24    23    1
    39    24    25    1
    40    26    25    1
    41    25    31    1
    42    34    31    2
    43    31    32   am
    44    32    33    1
    45    32    35    1
    46    36    35    1
    47    38    35    1
    48    35    37    1
