@<TRIPOS>MOLECULE
/tmp/ewbell/vina_1b6l_1b6l_lig/vina/vina5.pdbqt
 46 48 0 0 0
SMALL
GASTEIGER

@<TRIPOS>ATOM
      1  C1         4.9130    0.2200   15.1690 C.3   203  INH203      0.0360
      2  C2         3.3970    0.3460   13.1570 C.2   203  INH203      0.2180
      3  O1         3.2460   -0.5130   12.2890 O.2   203  INH203     -0.2740
      4  C3         3.5320   -0.0430   14.6160 C.3   203  INH203      0.1050
      5  N1         3.4740    1.6460   12.8840 N.am  203  INH203     -0.3470
      6  C4         3.3390    2.1620   11.5120 C.3   203  INH203      0.1850
      7  C5         4.4400    3.1290   11.0930 C.2   203  INH203      0.2410
      8  O2         4.6040    4.1970   11.6830 O.2   203  INH203     -0.2710
      9  N3         5.1850    2.7490   10.0600 N.am  203  INH203     -0.3520
     10  C8         6.2750    3.5860    9.5430 C.3   203  INH203      0.1190
     11  C9         7.6280    2.9390    9.8500 C.3   203  INH203      0.0660
     12  C10        7.5920    2.0930   11.0930 C.ar  203  INH203     -0.0560
     13  C11        7.3160    0.7350   11.0080 C.ar  203  INH203      0.0100
     14  C12        7.1880   -0.0370   12.1340 C.ar  203  INH203      0.0370
     15  C13        7.7570    2.6590   12.3570 C.ar  203  INH203      0.0100
     16  C14        7.6290    1.8870   13.5000 C.ar  203  INH203      0.0370
     17  C15        7.3440    0.5370   13.3760 C.ar  203  INH203      0.0680
     18  O4         7.1750   -0.2560   14.4820 O.3   203  INH203     -0.3510
     19  C16        5.8990   -0.8320   14.6830 C.3   203  INH203      0.1760
     20  H5         3.6290    2.2910   13.6320 H     203  INH203      0.1630
     21  H11        4.9980    1.8700    9.6230 H     203  INH203      0.1630
     22  C17        6.1090    3.7930    8.0260 C.3   203  INH203      0.1670
     23  C18        7.4160    3.5470    7.2920 C.3   203  INH203      0.2690
     24  N4         7.1620    2.6320    6.1540 N.4   203  INH203     -0.0560
     25  C19        7.9190    3.1450    4.9770 C.3   203  INH203      0.2790
     26  C20        7.7410    2.1890    3.7910 C.3   203  INH203      0.0430
     27  C21        8.1410    0.7530    4.1010 C.3   203  INH203      0.0040
     28  C22        7.4360    0.2680    5.3580 C.3   203  INH203      0.0280
     29  C23        7.6290    1.2500    6.5050 C.3   203  INH203      0.2360
     30  H25        6.1770    2.6110    5.9430 H     203  INH203      0.2810
     31  C24        7.4300    4.5440    4.6050 C.2   203  INH203      0.2490
     32  N5         8.3750    5.4730    4.4360 N.am  203  INH203     -0.3510
     33  H44        8.0810    6.4010    4.2070 H     203  INH203      0.1630
     34  O6         6.2240    4.7660    4.4820 O.2   203  INH203     -0.2710
     35  C25        9.8210    5.2230    4.5630 C.3   203  INH203      0.0220
     36  C28       10.2440    4.1100    3.6110 C.3   203  INH203      0.0370
     37  C27       10.1360    4.7800    5.9900 C.3   203  INH203      0.0370
     38  C26       10.6130    6.4880    4.2590 C.3   203  INH203      0.0370
     39  O5         5.0970    2.9180    7.5170 O.3   203  INH203     -0.3920
     40  H22        4.5510    2.6170    8.2330 H     203  INH203      0.2100
     41  C6         1.9860    2.8560   11.3580 C.3   203  INH203      0.1370
     42  C7         1.1320    2.2190   10.2950 C.2   203  INH203      0.2170
     43  N2         1.1330    0.8900   10.2530 N.am  203  INH203     -0.3700
     44  H10        1.6820    0.3690   10.9080 H     203  INH203      0.1590
     45  H9         0.5840    0.4110    9.5680 H     203  INH203      0.1590
     46  O3         0.4940    2.9060    9.5040 O.2   203  INH203     -0.2740
@<TRIPOS>BOND
     1    36    35    1
     2    26    27    1
     3    26    25    1
     4    27    28    1
     5    33    32    1
     6    38    35    1
     7    32    35    1
     8    32    31   am
     9    34    31    2
    10    35    37    1
    11    31    25    1
    12    25    24    1
    13    28    29    1
    14    30    24    1
    15    24    29    1
    16    24    23    1
    17    23    22    1
    18    39    22    1
    19    39    40    1
    20    22    10    1
    21    46    42    2
    22    10    11    1
    23    10     9    1
    24    45    43    1
    25    21     9    1
    26    11    12    1
    27     9     7   am
    28    43    42   am
    29    43    44    1
    30    42    41    1
    31    13    12   ar
    32    13    14   ar
    33     7     6    1
    34     7     8    2
    35    12    15   ar
    36    41     6    1
    37     6     5    1
    38    14    17   ar
    39     3     2    2
    40    15    16   ar
    41     5     2   am
    42     5    20    1
    43     2     4    1
    44    17    16   ar
    45    17    18    1
    46    18    19    1
    47     4     1    1
    48    19     1    1
