@<TRIPOS>MOLECULE
/tmp/ewbell/vina_1b6l_1b6l_lig/vina/vina1.pdbqt
 46 48 0 0 0
SMALL
GASTEIGER

@<TRIPOS>ATOM
      1  C1         4.8220    0.1830   14.8610 C.3   203  INH203      0.0360
      2  C2         3.3060    0.5870   12.8860 C.2   203  INH203      0.2180
      3  O1         3.0970   -0.1780   11.9450 O.2   203  INH203     -0.2740
      4  C3         3.4240    0.0560   14.3010 C.3   203  INH203      0.1050
      5  N1         3.4630    1.8990   12.7330 N.am  203  INH203     -0.3470
      6  C4         3.3520    2.5470   11.4160 C.3   203  INH203      0.1850
      7  C5         4.5090    3.4790   11.0750 C.2   203  INH203      0.2410
      8  O2         4.7420    4.4760   11.7590 O.2   203  INH203     -0.2710
      9  N3         5.2230    3.1510   10.0030 N.am  203  INH203     -0.3520
     10  C8         6.3610    3.9640    9.5530 C.3   203  INH203      0.1190
     11  C9         7.6720    3.2090    9.7850 C.3   203  INH203      0.0660
     12  C10        7.5900    2.2570   10.9450 C.ar  203  INH203     -0.0560
     13  C11        7.2310    0.9320   10.7390 C.ar  203  INH203      0.0100
     14  C12        7.0600    0.0680   11.7910 C.ar  203  INH203      0.0370
     15  C13        7.7970    2.6920   12.2540 C.ar  203  INH203      0.0100
     16  C14        7.6270    1.8270   13.3230 C.ar  203  INH203      0.0370
     17  C15        7.2590    0.5140   13.0780 C.ar  203  INH203      0.0680
     18  O4         7.0470   -0.3660   14.1090 O.3   203  INH203     -0.3510
     19  C16        5.7380   -0.8790   14.2700 C.3   203  INH203      0.1760
     20  H5         3.6610    2.4610   13.5350 H     203  INH203      0.1630
     21  H11        4.9810    2.3290    9.4900 H     203  INH203      0.1630
     22  C17        6.2000    4.3190    8.0640 C.3   203  INH203      0.1670
     23  C18        4.7940    4.8130    7.7660 C.3   203  INH203      0.2690
     24  N4         4.3540    4.2540    6.4660 N.4   203  INH203     -0.0560
     25  C19        3.0040    4.8050    6.1630 C.3   203  INH203      0.2790
     26  C20        2.5370    4.3070    4.7900 C.3   203  INH203      0.0430
     27  C21        3.5100    4.6250    3.6630 C.3   203  INH203      0.0040
     28  C22        4.9070    4.1430    4.0210 C.3   203  INH203      0.0280
     29  C23        5.3260    4.6510    5.3940 C.3   203  INH203      0.2360
     30  H25        4.3080    3.2490    6.5220 H     203  INH203      0.2810
     31  C24        2.0090    4.3840    7.2440 C.2   203  INH203      0.2490
     32  N5         1.1510    5.3230    7.6530 N.am  203  INH203     -0.3510
     33  H44        0.4990    5.0780    8.3710 H     203  INH203      0.1630
     34  O6         2.0300    3.2370    7.6920 O.2   203  INH203     -0.2710
     35  C25        1.0990    6.6940    7.1180 C.3   203  INH203      0.0220
     36  C28        2.5120    7.2290    6.9130 C.3   203  INH203      0.0370
     37  C27        0.3820    7.6010    8.1150 C.3   203  INH203      0.0370
     38  C26        0.3410    6.7270    5.7960 C.3   203  INH203      0.0370
     39  O5         7.1530    5.3190    7.6900 O.3   203  INH203     -0.3920
     40  H22        6.7560    6.1780    7.7620 H     203  INH203      0.2100
     41  C6         2.0450    3.3330   11.3400 C.3   203  INH203      0.1370
     42  C7         0.8810    2.4760   10.9200 C.2   203  INH203      0.2170
     43  N2         1.1470    1.5040   10.0520 N.am  203  INH203     -0.3700
     44  H10        2.0800    1.3740    9.7160 H     203  INH203      0.1590
     45  H9         0.4130    0.9030    9.7350 H     203  INH203      0.1590
     46  O3        -0.2480    2.6920   11.3470 O.2   203  INH203     -0.2740
@<TRIPOS>BOND
     1    27    28    1
     2    27    26    1
     3    28    29    1
     4    26    25    1
     5    29    24    1
     6    38    35    1
     7    25    24    1
     8    25    31    1
     9    24    30    1
    10    24    23    1
    11    36    35    1
    12    35    32    1
    13    35    37    1
    14    31    32   am
    15    31    34    2
    16    32    33    1
    17    39    40    1
    18    39    22    1
    19    23    22    1
    20    22    10    1
    21    21     9    1
    22    10    11    1
    23    10     9    1
    24    44    43    1
    25    45    43    1
    26    11    12    1
    27     9     7   am
    28    43    42   am
    29    13    12   ar
    30    13    14   ar
    31    42    41    1
    32    42    46    2
    33    12    15   ar
    34     7     6    1
    35     7     8    2
    36    41     6    1
    37     6     5    1
    38    14    17   ar
    39     3     2    2
    40    15    16   ar
    41     5     2   am
    42     5    20    1
    43     2     4    1
    44    17    16   ar
    45    17    18    1
    46    18    19    1
    47    19     1    1
    48     4     1    1
