@<TRIPOS>MOLECULE
/tmp/ewbell/vina_1b6l_1b6l_lig/vina/vina2.pdbqt
 46 48 0 0 0
SMALL
GASTEIGER

@<TRIPOS>ATOM
      1  C1         5.4820   -7.4990   17.3030 C.3   203  INH203      0.0360
      2  C2         6.9820   -5.4760   17.1770 C.2   203  INH203      0.2180
      3  O1         7.1350   -4.6130   18.0410 O.2   203  INH203     -0.2740
      4  C3         6.8610   -6.9380   17.5590 C.3   203  INH203      0.1050
      5  N1         6.8920   -5.1960   15.8800 N.am  203  INH203     -0.3470
      6  C4         7.0140   -3.8200   15.3710 C.3   203  INH203      0.1850
      7  C5         5.9020   -3.4020   14.4160 C.2   203  INH203      0.2410
      8  O2         5.7330   -3.9870   13.3460 O.2   203  INH203     -0.2710
      9  N3         5.1530   -2.3770   14.8090 N.am  203  INH203     -0.3520
     10  C8         4.0520   -1.8620   13.9840 C.3   203  INH203      0.1190
     11  C9         2.7070   -2.1830   14.6420 C.3   203  INH203      0.0660
     12  C10        2.7590   -3.4300   15.4790 C.ar  203  INH203     -0.0560
     13  C11        3.0460   -3.3520   16.8350 C.ar  203  INH203      0.0100
     14  C12        3.1880   -4.4820   17.5990 C.ar  203  INH203      0.0370
     15  C13        2.5980   -4.6920   14.9070 C.ar  203  INH203      0.0100
     16  C14        2.7400   -5.8390   15.6700 C.ar  203  INH203      0.0370
     17  C15        3.0350   -5.7210   17.0190 C.ar  203  INH203      0.0680
     18  O4         3.2190   -6.8310   17.8040 O.3   203  INH203     -0.3510
     19  C16        4.5010   -7.0260   18.3670 C.3   203  INH203      0.1760
     20  H5         6.7370   -5.9410   15.2320 H     203  INH203      0.1630
     21  H11        5.3440   -1.9450   15.6890 H     203  INH203      0.1630
     22  C17        4.2060   -0.3430   13.7860 C.3   203  INH203      0.1670
     23  C18        4.7800   -0.0240   12.4160 C.3   203  INH203      0.2690
     24  N4         6.1490    0.5200   12.5840 N.4   203  INH203     -0.0560
     25  C19        6.2170    1.8200   11.8600 C.3   203  INH203      0.2790
     26  C20        7.5980    2.4540   12.0650 C.3   203  INH203      0.0430
     27  C21        7.9750    2.6350   13.5290 C.3   203  INH203      0.0040
     28  C22        7.8120    1.3230   14.2810 C.3   203  INH203      0.0280
     29  C23        6.4330    0.7250   14.0420 C.3   203  INH203      0.2360
     30  H25        6.8230   -0.1220   12.1970 H     203  INH203      0.2810
     31  C24        5.9480    1.6100   10.3710 C.2   203  INH203      0.2490
     32  N5         5.0160    2.3940    9.8240 N.am  203  INH203     -0.3510
     33  H44        4.8090    2.2660    8.8530 H     203  INH203      0.1630
     34  O6         6.5720    0.7520    9.7440 O.2   203  INH203     -0.2710
     35  C25        4.2710    3.4350   10.5520 C.3   203  INH203      0.0220
     36  C28        3.5090    2.8150   11.7170 C.3   203  INH203      0.0370
     37  C27        3.2610    4.0880    9.6120 C.3   203  INH203      0.0370
     38  C26        5.2190    4.5090   11.0710 C.3   203  INH203      0.0370
     39  O5         2.9400    0.3050   13.9440 O.3   203  INH203     -0.3920
     40  H22        3.0290    1.0290   14.5510 H     203  INH203      0.2100
     41  C6         8.3590   -3.6520   14.6670 C.3   203  INH203      0.1370
     42  C7         9.4880   -4.3020   15.4210 C.2   203  INH203      0.2170
     43  N2         9.9720   -3.6260   16.4590 N.am  203  INH203     -0.3700
     44  H10        9.5840   -2.7370   16.7020 H     203  INH203      0.1590
     45  H9        10.7230   -4.0080   16.9970 H     203  INH203      0.1590
     46  O3         9.9410   -5.3860   15.0670 O.2   203  INH203     -0.2740
@<TRIPOS>BOND
     1    33    32    1
     2    37    35    1
     3    34    31    2
     4    32    31   am
     5    32    35    1
     6    31    25    1
     7    35    38    1
     8    35    36    1
     9    25    26    1
    10    25    24    1
    11    26    27    1
    12    30    24    1
    13    23    24    1
    14    23    22    1
    15    24    29    1
    16     8     7    2
    17    27    28    1
    18    22    39    1
    19    22    10    1
    20    39    40    1
    21    10    11    1
    22    10     9    1
    23    29    28    1
    24     7     9   am
    25     7     6    1
    26    11    12    1
    27    41     6    1
    28    41    42    1
    29     9    21    1
    30    15    12   ar
    31    15    16   ar
    32    46    42    2
    33    20     5    1
    34     6     5    1
    35    42    43   am
    36    12    13   ar
    37    16    17   ar
    38     5     2   am
    39    43    44    1
    40    43    45    1
    41    13    14   ar
    42    17    14   ar
    43    17    18    1
    44     2     4    1
    45     2     3    2
    46     1     4    1
    47     1    19    1
    48    18    19    1
