@<TRIPOS>MOLECULE
./ligand/2j4k_lig.pdb
 32 33 0 0 0
SMALL
GASTEIGER

@<TRIPOS>ATOM
      1  N1        39.3860    9.1620   -0.0140 N.ar  1320  INH1320    -0.2715
      2  C1        39.3590    7.7270   -0.5400 C.ar  1320  INH1320     0.3314
      3  N2        38.2400    7.4180   -1.3420 N.ar  1320  INH1320    -0.2749
      4  C2        37.1730    8.2930   -1.6990 C.ar  1320  INH1320     0.2539
      5  C3        37.1900    9.7450   -1.1890 C.ar  1320  INH1320     0.0192
      6  C4        38.2650   10.0940   -0.3930 C.ar  1320  INH1320     0.0171
      7  O1        40.1770    6.8710   -0.3290 O.2   1320  INH1320    -0.2464
      8  O2        35.9980    7.8500   -2.5610 O.2   1320  INH1320    -0.2677
      9  C5        40.5890    9.5790    0.8990 C.3   1320  INH1320     0.1679
     10  C6        41.9920    9.6280    0.1180 C.3   1320  INH1320     0.1286
     11  O3        42.9910    9.0240    0.9860 O.3   1320  INH1320    -0.3847
     12  C7        41.8910   11.0880   -0.4040 C.3   1320  INH1320     0.1135
     13  C8        41.3940   11.8140    0.8770 C.3   1320  INH1320     0.1134
     14  O4        43.1530   11.6290   -0.7840 O.3   1320  INH1320    -0.3864
     15  O5        40.3760   10.9960    1.3020 O.3   1320  INH1320    -0.3456
     16  C9        40.7680   13.1530    0.8270 C.3   1320  INH1320     0.0880
     17  O6        40.0490   13.2160   -0.3810 O.3   1320  INH1320    -0.2809
     18  P1        40.2890   14.2900   -1.4690 P.3   1320  INH1320     0.5320
     19  O7        39.3670   14.0180   -2.5900 O.2   1320  INH1320    -0.2224
     20  O8        40.1650   15.6280   -0.8100 O.3   1320  INH1320    -0.1145
     21  O9        41.8010   14.0330   -1.8890 O.3   1320  INH1320    -0.1145
     22  H1        38.1900    6.4850   -1.6980 H     1320  INH1320     0.1734
     23  H2        36.4030   10.4550   -1.4400 H     1320  INH1320     0.0686
     24  H3        38.3040   11.1140   -0.0130 H     1320  INH1320     0.0813
     25  H4        40.6500    8.9080    1.7690 H     1320  INH1320     0.0867
     26  H5        41.9710    8.9810   -0.7720 H     1320  INH1320     0.0665
     27  H6        43.8360    9.0370    0.5530 H     1320  INH1320     0.2101
     28  H7        41.1790   11.1720   -1.2380 H     1320  INH1320     0.0647
     29  H8        42.2250   11.8520    1.5970 H     1320  INH1320     0.0647
     30  H9        43.0350   12.5190   -1.0940 H     1320  INH1320     0.2100
     31  H10       40.0880   13.2860    1.6810 H     1320  INH1320     0.0592
     32  H11       41.5420   13.9350    0.8490 H     1320  INH1320     0.0592
@<TRIPOS>BOND
     1    19    18    2
     2     8     4    2
     3    21    18    1
     4     4     3   ar
     5     4     5   ar
     6    22     3    1
     7    18    20    1
     8    18    17    1
     9    23     5    1
    10     3     2   ar
    11    28    12    1
    12     5     6   ar
    13    30    14    1
    14    14    12    1
    15    26    10    1
    16     2     7    2
    17     2     1   ar
    18    12    10    1
    19    12    13    1
    20     6     1   ar
    21     6    24    1
    22    17    16    1
    23     1     9    1
    24    10     9    1
    25    10    11    1
    26    27    11    1
    27    16    32    1
    28    16    13    1
    29    16    31    1
    30    13    15    1
    31    13    29    1
    32     9    15    1
    33     9    25    1
