@<TRIPOS>MOLECULE
/tmp/ewbell/vina_2j4k_2j4k_lig/vina/vina1.pdbqt
 27 28 0 0 0
SMALL
GASTEIGER

@<TRIPOS>ATOM
      1  C5        40.4120   10.9470    0.1130 C.3   1320  INH1320     0.2630
      2  C6        41.7800   10.8820   -0.7260 C.3   1320  INH1320     0.1980
      3  C7        41.4450   11.9940   -1.7590 C.3   1320  INH1320     0.1820
      4  C8        40.8570   13.0850   -0.8220 C.3   1320  INH1320     0.1800
      5  O5        39.9850   12.3640   -0.0440 O.3   1320  INH1320    -0.3530
      6  N1        39.2780   10.0440   -0.4810 N.am  1320  INH1320    -0.2800
      7  C1        39.4430    8.5290   -0.3650 C.2   1320  INH1320     0.3300
      8  N2        38.3770    7.7790   -0.9070 N.am  1320  INH1320    -0.2890
      9  O1        40.3670    7.9460    0.1380 O.2   1320  INH1320    -0.2460
     10  C2        37.2050    8.2880   -1.5370 C.3   1320  INH1320     0.1440
     11  H1        38.4530    6.7840   -0.8420 H     1320  INH1320     0.1720
     12  C3        37.0280    9.8100   -1.6750 C.2   1320  INH1320     0.0730
     13  C4        38.0430   10.5880   -1.1520 C.2   1320  INH1320     0.1030
     14  O2        36.1010    7.3860   -2.0750 O.3   1320  INH1320    -0.3460
     15  H2        35.3600    7.7190   -2.5670 H     1320  INH1320     0.2190
     16  O3        42.8720   10.8100    0.2320 O.3   1320  INH1320    -0.3880
     17  H6        42.8030   11.5320    0.8450 H     1320  INH1320     0.2100
     18  O4        42.6030   12.5140   -2.4080 O.3   1320  INH1320    -0.3900
     19  H9        43.1390   12.9750   -1.7740 H     1320  INH1320     0.2100
     20  C9        40.0280   14.1970   -1.3360 C.3   1320  INH1320     0.2150
     21  O6        39.9630   14.0370   -2.7330 O.3   1320  INH1320    -0.2940
     22  P1        40.2960   15.1610   -3.7430 P.3   1320  INH1320     0.3900
     23  O7        39.6110   14.8510   -5.0140 O.2   1320  INH1320    -0.6320
     24  O9        41.8750   15.0410   -3.8930 O.3   1320  INH1320    -0.3070
     25  H         42.1110   14.1250   -4.1050 H     1320  INH1320     0.2220
     26  O8        39.9460   16.4630   -3.0930 O.3   1320  INH1320    -0.3070
     27  H         39.0780   16.7590   -3.4100 H     1320  INH1320     0.2220
@<TRIPOS>BOND
     1    23    22    2
     2    25    24    1
     3    24    22    1
     4    22    26    1
     5    22    21    1
     6    27    26    1
     7    21    20    1
     8    15    14    1
     9    18    19    1
    10    18     3    1
    11    14    10    1
    12     3     4    1
    13     3     2    1
    14    12    10    1
    15    12    13    2
    16    10     8    1
    17    20     4    1
    18    13     6    1
    19     8    11    1
    20     8     7   am
    21     4     5    1
    22     2     1    1
    23     2    16    1
    24     6     7   am
    25     6     1    1
    26     7     9    2
    27     5     1    1
    28    16    17    1
