@<TRIPOS>MOLECULE
/tmp/ewbell/vina_2j4k_2j4k_lig/vina/vina5.pdbqt
 27 28 0 0 0
SMALL
GASTEIGER

@<TRIPOS>ATOM
      1  C5        29.0470    0.5870    8.3750 C.3   1320  INH1320     0.2630
      2  C6        30.6160    0.9210    8.2960 C.3   1320  INH1320     0.1980
      3  C7        30.5300    2.4250    8.6750 C.3   1320  INH1320     0.1820
      4  C8        29.5450    2.3600    9.8760 C.3   1320  INH1320     0.1800
      5  O5        28.5460    1.5520    9.3920 O.3   1320  INH1320    -0.3530
      6  N1        28.2850    0.8730    7.0360 N.am  1320  INH1320    -0.2800
      7  C1        26.8150    0.4630    6.9550 C.2   1320  INH1320     0.3300
      8  N2        26.1880    0.7650    5.7270 N.am  1320  INH1320    -0.2890
      9  O1        26.1710   -0.0680    7.8210 O.2   1320  INH1320    -0.2460
     10  C2        26.7830    1.3910    4.5930 C.3   1320  INH1320     0.1440
     11  H1        25.2240    0.5150    5.6440 H     1320  INH1320     0.1720
     12  C3        28.2660    1.7990    4.6520 C.2   1320  INH1320     0.0730
     13  C4        28.9210    1.5290    5.8380 C.2   1320  INH1320     0.1030
     14  O2        26.0080    1.6890    3.3160 O.3   1320  INH1320    -0.3460
     15  H2        26.1880    2.4450    2.7690 H     1320  INH1320     0.2190
     16  O3        31.3220   -0.1620    8.9640 O.3   1320  INH1320    -0.3880
     17  H6        30.8060   -0.9570    8.9100 H     1320  INH1320     0.2100
     18  O4        31.7740    2.9550    9.1240 O.3   1320  INH1320    -0.3900
     19  H9        31.6410    3.4300    9.9360 H     1320  INH1320     0.2100
     20  C9        28.8220    3.5550   10.3630 C.3   1320  INH1320     0.2150
     21  O6        28.1650    4.1090    9.2490 O.3   1320  INH1320    -0.2940
     22  P1        26.8330    4.8920    9.3390 P.3   1320  INH1320     0.3900
     23  O7        27.1510    6.3340    9.3620 O.2   1320  INH1320    -0.6320
     24  O9        26.2360    4.4100   10.7320 O.3   1320  INH1320    -0.3070
     25  H         26.8480    3.7820   11.1470 H     1320  INH1320     0.2220
     26  O8        25.9590    4.4160    8.2220 O.3   1320  INH1320    -0.3070
     27  H         25.4280    5.1560    7.8890 H     1320  INH1320     0.2220
@<TRIPOS>BOND
     1    15    14    1
     2    14    10    1
     3    10    12    1
     4    10     8    1
     5    12    13    2
     6    11     8    1
     7     8     7   am
     8    13     6    1
     9     7     6   am
    10     7     9    2
    11     6     1    1
    12    27    26    1
    13    26    22    1
    14     2     1    1
    15     2     3    1
    16     2    16    1
    17     1     5    1
    18     3    18    1
    19     3     4    1
    20    17    16    1
    21    18    19    1
    22    21    22    1
    23    21    20    1
    24    22    23    2
    25    22    24    1
    26     5     4    1
    27     4    20    1
    28    24    25    1
