@<TRIPOS>MOLECULE
/tmp/ewbell/vina_2j4k_2j4k_lig/vina/vina4.pdbqt
 27 28 0 0 0
SMALL
GASTEIGER

@<TRIPOS>ATOM
      1  C5        27.6260    1.5390    7.5120 C.3   1320  INH1320     0.2630
      2  C6        28.1110    0.0880    8.0010 C.3   1320  INH1320     0.1980
      3  C7        29.6400    0.3090    7.8330 C.3   1320  INH1320     0.1820
      4  C8        29.7940    1.7190    8.4670 C.3   1320  INH1320     0.1800
      5  O5        28.7690    2.4190    7.8790 O.3   1320  INH1320    -0.3530
      6  N1        27.4350    1.6380    5.9600 N.am  1320  INH1320    -0.2800
      7  C1        26.0760    1.2380    5.3860 C.2   1320  INH1320     0.3300
      8  N2        25.9700    1.3660    3.9840 N.am  1320  INH1320    -0.2890
      9  O1        25.1230    0.8460    6.0070 O.2   1320  INH1320    -0.2460
     10  C2        26.9830    1.8130    3.0860 C.3   1320  INH1320     0.1440
     11  H1        25.0910    1.1180    3.5780 H     1320  INH1320     0.1720
     12  C3        28.3610    2.2070    3.6450 C.2   1320  INH1320     0.0730
     13  C4        28.5120    2.1040    5.0150 C.2   1320  INH1320     0.1030
     14  O2        26.7570    1.9320    1.5840 O.3   1320  INH1320    -0.3460
     15  H2        26.2020    2.6000    1.1990 H     1320  INH1320     0.2190
     16  O3        27.3500   -0.2410    9.1970 O.3   1320  INH1320    -0.3880
     17  H6        26.4790    0.1310    9.1300 H     1320  INH1320     0.2100
     18  O4        30.4190   -0.6230    8.5780 O.3   1320  INH1320    -0.3900
     19  H9        29.8550   -1.3090    8.9140 H     1320  INH1320     0.2100
     20  C9        30.9820    2.5650    8.2190 C.3   1320  INH1320     0.2150
     21  O6        32.0410    1.6910    7.9150 O.3   1320  INH1320    -0.2940
     22  P1        33.3910    1.6790    8.6730 P.3   1320  INH1320     0.3900
     23  O7        33.1070    1.4840   10.1090 O.2   1320  INH1320    -0.6320
     24  O9        33.9640    3.1350    8.3900 O.3   1320  INH1320    -0.3070
     25  H         33.4730    3.7850    8.9160 H     1320  INH1320     0.2220
     26  O8        34.2620    0.6550    8.0170 O.3   1320  INH1320    -0.3070
     27  H         35.1090    1.0590    7.7710 H     1320  INH1320     0.2220
@<TRIPOS>BOND
     1    15    14    1
     2    14    10    1
     3    10    12    1
     4    10     8    1
     5    11     8    1
     6    12    13    2
     7     8     7   am
     8    13     6    1
     9     7     6   am
    10     7     9    2
    11     6     1    1
    12     1     5    1
    13     1     2    1
    14    27    26    1
    15     3     2    1
    16     3     4    1
    17     3    18    1
    18     5     4    1
    19    21    20    1
    20    21    22    1
    21     2    16    1
    22    26    22    1
    23    20     4    1
    24    24    22    1
    25    24    25    1
    26    18    19    1
    27    22    23    2
    28    17    16    1
