@<TRIPOS>MOLECULE
/tmp/ewbell/vina_2j4k_2j4k_lig/vina/vina2.pdbqt
 27 28 0 0 0
SMALL
GASTEIGER

@<TRIPOS>ATOM
      1  C5        39.8750   11.9510   -0.7350 C.3   1320  INH1320     0.2630
      2  C6        40.2630   12.9220    0.4850 C.3   1320  INH1320     0.1980
      3  C7        41.0410   13.9880   -0.3350 C.3   1320  INH1320     0.1820
      4  C8        40.0800   14.1760   -1.5410 C.3   1320  INH1320     0.1800
      5  O5        39.7950   12.8800   -1.8950 O.3   1320  INH1320    -0.3530
      6  N1        40.9800   10.8880   -1.0570 N.am  1320  INH1320    -0.2800
      7  C1        40.9370    9.5660   -0.2900 C.2   1320  INH1320     0.3300
      8  N2        41.9520    8.6510   -0.6420 N.am  1320  INH1320    -0.2890
      9  O1        40.1360    9.2510    0.5500 O.2   1320  INH1320    -0.2460
     10  C2        42.9820    8.8430   -1.6080 C.3   1320  INH1320     0.1440
     11  H1        41.9480    7.7740   -0.1620 H     1320  INH1320     0.1720
     12  C3        43.0480   10.1730   -2.3800 C.2   1320  INH1320     0.0730
     13  C4        42.0700   11.1000   -2.0750 C.2   1320  INH1320     0.1030
     14  O2        44.0230    7.7780   -1.9250 O.3   1320  INH1320    -0.3460
     15  H2        43.7970    6.8680   -2.0780 H     1320  INH1320     0.2190
     16  O3        39.0750   13.0760    1.3090 O.3   1320  INH1320    -0.3880
     17  H6        38.5080   13.7350    0.9270 H     1320  INH1320     0.2100
     18  O4        41.1710   15.2290    0.3530 O.3   1320  INH1320    -0.3900
     19  H9        40.7550   15.1640    1.2040 H     1320  INH1320     0.2100
     20  C9        40.5230   14.7950   -2.8090 C.3   1320  INH1320     0.2150
     21  O6        39.8280   16.0130   -2.9280 O.3   1320  INH1320    -0.2940
     22  P1        40.4490   17.3920   -2.6020 P.3   1320  INH1320     0.3900
     23  O7        39.7140   18.4170   -3.3700 O.2   1320  INH1320    -0.6320
     24  O9        41.9420   17.2370   -3.1280 O.3   1320  INH1320    -0.3070
     25  H         42.4920   16.8460   -2.4320 H     1320  INH1320     0.2220
     26  O8        40.4490   17.5420   -1.1130 O.3   1320  INH1320    -0.3070
     27  H         40.6530   16.6870   -0.7020 H     1320  INH1320     0.2220
@<TRIPOS>BOND
     1    23    22    2
     2    24    22    1
     3    24    25    1
     4    21    20    1
     5    21    22    1
     6    20     4    1
     7    22    26    1
     8    12    13    2
     9    12    10    1
    10    15    14    1
    11    13     6    1
    12    14    10    1
    13     5     4    1
    14     5     1    1
    15    10     8    1
    16     4     3    1
    17    26    27    1
    18     6     1    1
    19     6     7   am
    20     1     2    1
    21     8     7   am
    22     8    11    1
    23     3    18    1
    24     3     2    1
    25     7     9    2
    26    18    19    1
    27     2    16    1
    28    17    16    1
