@<TRIPOS>MOLECULE
/tmp/ewbell/vina_2j4k_2j4k_lig/vina/vina3.pdbqt
 27 28 0 0 0
SMALL
GASTEIGER

@<TRIPOS>ATOM
      1  C5        41.0590   12.2980    1.1780 C.3   1320  INH1320     0.2630
      2  C6        42.5450   12.6280    0.6640 C.3   1320  INH1320     0.1980
      3  C7        42.1570   13.2910   -0.6870 C.3   1320  INH1320     0.1820
      4  C8        40.9930   14.2120   -0.2280 C.3   1320  INH1320     0.1800
      5  O5        40.2370   13.3660    0.5460 O.3   1320  INH1320    -0.3530
      6  N1        40.5170   10.9210    0.6650 N.am  1320  INH1320    -0.2800
      7  C1        41.2690    9.6600    1.0910 C.2   1320  INH1320     0.3300
      8  N2        40.7170    8.4550    0.6050 N.am  1320  INH1320    -0.2890
      9  O1        42.2500    9.6120    1.7850 O.2   1320  INH1320    -0.2460
     10  C2        39.5660    8.3130   -0.2230 C.3   1320  INH1320     0.1440
     11  H1        41.1830    7.6120    0.8710 H     1320  INH1320     0.1720
     12  C3        38.8040    9.5720   -0.6720 C.2   1320  INH1320     0.0730
     13  C4        39.3040   10.7770   -0.2160 C.2   1320  INH1320     0.1030
     14  O2        39.0420    6.9570   -0.6780 O.3   1320  INH1320    -0.3460
     15  H2        38.1820    6.8420   -1.0640 H     1320  INH1320     0.2190
     16  O3        43.2770   13.1860    1.7900 O.3   1320  INH1320    -0.3880
     17  H6        42.6650   13.5510    2.4170 H     1320  INH1320     0.2100
     18  O4        43.2010   14.0960   -1.2280 O.3   1320  INH1320    -0.3900
     19  H9        43.2190   13.9970   -2.1720 H     1320  INH1320     0.2100
     20  C9        40.0160   14.7770   -1.1840 C.3   1320  INH1320     0.2150
     21  O6        40.3740   16.1250   -1.3750 O.3   1320  INH1320    -0.2940
     22  P1        40.3920   16.8220   -2.7560 P.3   1320  INH1320     0.3900
     23  O7        39.3770   17.8950   -2.7400 O.2   1320  INH1320    -0.6320
     24  O9        39.9780   15.6490   -3.7470 O.3   1320  INH1320    -0.3070
     25  H         39.5690   16.0250   -4.5420 H     1320  INH1320     0.2220
     26  O8        41.8030   17.2390   -3.0270 O.3   1320  INH1320    -0.3070
     27  H         41.9020   17.4560   -3.9680 H     1320  INH1320     0.2220
@<TRIPOS>BOND
     1    25    24    1
     2    27    26    1
     3    24    22    1
     4    26    22    1
     5    22    23    2
     6    22    21    1
     7    19    18    1
     8    21    20    1
     9    18     3    1
    10    20     4    1
    11    15    14    1
    12     3     4    1
    13     3     2    1
    14    14    10    1
    15    12    10    1
    16    12    13    2
    17     4     5    1
    18    10     8    1
    19    13     6    1
    20     5     1    1
    21     8    11    1
    22     8     7   am
    23     2     1    1
    24     2    16    1
    25     6     7   am
    26     6     1    1
    27     7     9    2
    28    16    17    1
