@<TRIPOS>MOLECULE
./ligand/2byr_lig.pdb
 100 107 0 0 0
SMALL
GASTEIGER

@<TRIPOS>ATOM
      1  O1       -13.8420  -15.7400   33.7360 O.2   1071  INH1071    -0.2748
      2  C1       -14.3040  -14.6680   33.3510 C.2   1071  INH1071     0.2269
      3  C2       -14.9730  -14.4640   32.0090 C.3   1071  INH1071     0.0357
      4  H1       -15.8180  -15.1420   31.8870 H     1071  INH1071     0.0366
      5  H2       -14.2660  -14.6140   31.1940 H     1071  INH1071     0.0366
      6  C3       -15.4410  -13.0140   32.0650 C.3   1071  INH1071     0.0419
      7  H3       -16.5260  -12.9370   32.0000 H     1071  INH1071     0.0396
      8  C4       -14.9340  -12.1820   30.8980 C.3   1071  INH1071    -0.0536
      9  H4       -13.8440  -12.2020   30.8840 H     1071  INH1071     0.0237
     10  H5       -15.2770  -11.1530   31.0090 H     1071  INH1071     0.0237
     11  H6       -15.3170  -12.5940   29.9640 H     1071  INH1071     0.0237
     12  C5       -14.8800  -12.5190   33.3550 C.2   1071  INH1071     0.2295
     13  O2       -15.0070  -11.3680   33.7390 O.2   1071  INH1071    -0.2745
     14  N1       -14.3080  -13.5160   34.0210 N.am  1071  INH1071    -0.2094
     15  C6       -13.7360  -13.3400   35.2830 C.ar  1071  INH1071     0.0578
     16  C7       -14.5600  -13.1180   36.3710 C.ar  1071  INH1071    -0.0390
     17  H7       -15.6320  -13.0900   36.2420 H     1071  INH1071     0.0636
     18  C8       -14.0030  -12.9300   37.6340 C.ar  1071  INH1071    -0.0599
     19  H8       -14.6530  -12.7590   38.4790 H     1071  INH1071     0.0618
     20  C9       -12.6210  -12.9580   37.8290 C.ar  1071  INH1071    -0.0609
     21  H9       -12.2190  -12.8070   38.8200 H     1071  INH1071     0.0618
     22  C10      -11.7590  -13.1770   36.7670 C.ar  1071  INH1071    -0.0459
     23  H10      -10.6920  -13.1980   36.9350 H     1071  INH1071     0.0626
     24  C11      -12.2630  -13.3700   35.4870 C.ar  1071  INH1071     0.0807
     25  C12      -11.3050  -13.5930   34.3600 C.2   1071  INH1071     0.3410
     26  O3       -11.5710  -13.3270   33.2040 O.2   1071  INH1071    -0.2449
     27  O4       -10.0100  -14.1250   34.6780 O.3   1071  INH1071    -0.4603
     28  C13       -8.9600  -14.2200   33.7220 C.3   1071  INH1071     0.1036
     29  H11       -8.7280  -13.2320   33.3230 H     1071  INH1071     0.0705
     30  H12       -9.2560  -14.8810   32.9070 H     1071  INH1071     0.0705
     31  C14       -7.7470  -14.7900   34.4400 C.3   1071  INH1071     0.0509
     32  C15       -7.3190  -13.7130   35.4430 C.3   1071  INH1071    -0.0367
     33  H13       -8.0460  -12.9020   35.4170 H     1071  INH1071     0.0274
     34  H14       -6.3400  -13.3330   35.1520 H     1071  INH1071     0.0274
     35  C16       -7.2330  -14.2430   36.8590 C.3   1071  INH1071    -0.0251
     36  H15       -8.2330  -14.4980   37.2100 H     1071  INH1071     0.0291
     37  H16       -6.8050  -13.4770   37.5060 H     1071  INH1071     0.0291
     38  C17       -6.3550  -15.4820   36.8970 C.3   1071  INH1071     0.0698
     39  H17       -6.3800  -15.8980   37.9040 H     1071  INH1071     0.0603
     40  O5        -5.0200  -15.1120   36.5680 O.3   1071  INH1071    -0.3790
     41  C18       -4.2790  -14.3990   37.5640 C.3   1071  INH1071     0.0368
     42  H18       -3.2810  -14.1790   37.1860 H     1071  INH1071     0.0524
     43  H19       -4.2010  -15.0080   38.4640 H     1071  INH1071     0.0524
     44  H20       -4.7920  -13.4660   37.8000 H     1071  INH1071     0.0524
     45  C19       -6.8780  -16.5950   35.9580 C.3   1071  INH1071     0.0518
     46  C20       -8.0740  -16.1340   35.1210 C.3   1071  INH1071     0.0154
     47  H21       -8.9630  -15.9920   35.7350 H     1071  INH1071     0.0343
     48  C21       -5.9930  -17.0120   34.7890 C.3   1071  INH1071     0.0226
     49  H22       -5.0520  -17.5100   35.0240 H     1071  INH1071     0.0888
     50  N2        -5.5120  -15.8100   34.0420 N.4   1071  INH1071     0.2403
     51  H23       -5.0610  -15.2580   34.7580 H     1071  INH1071     0.2038
     52  C22       -4.5080  -16.1180   32.9940 C.3   1071  INH1071    -0.0344
     53  H24       -4.3540  -15.2270   32.3850 H     1071  INH1071     0.0812
     54  H25       -4.8920  -16.9240   32.3680 H     1071  INH1071     0.0812
     55  C23       -3.1770  -16.5460   33.5730 C.3   1071  INH1071    -0.0245
     56  H26       -2.7810  -15.7480   34.2020 H     1071  INH1071     0.0281
     57  H27       -2.4770  -16.7510   32.7630 H     1071  INH1071     0.0281
     58  H28       -3.3140  -17.4470   34.1720 H     1071  INH1071     0.0281
     59  C24       -6.6080  -15.0020   33.4460 C.3   1071  INH1071    -0.0222
     60  H29       -6.2120  -14.0310   33.1480 H     1071  INH1071     0.0821
     61  H30       -6.9950  -15.5210   32.5690 H     1071  INH1071     0.0821
     62  C25       -7.1330  -17.8350   36.8530 C.3   1071  INH1071    -0.0191
     63  H31       -7.9340  -17.4210   37.4660 H     1071  INH1071     0.0313
     64  C26       -5.8800  -18.2970   37.6240 C.3   1071  INH1071    -0.0414
     65  H32       -6.0250  -18.1590   38.6950 H     1071  INH1071     0.0273
     66  H33       -5.0080  -17.7290   37.2990 H     1071  INH1071     0.0273
     67  C27       -5.6930  -19.7810   37.3040 C.3   1071  INH1071     0.0123
     68  H34       -5.1420  -20.3190   38.0750 H     1071  INH1071     0.0351
     69  C28       -4.8610  -20.0190   36.0340 C.3   1071  INH1071     0.0662
     70  H35       -4.1730  -19.1750   35.9940 H     1071  INH1071     0.0600
     71  O6        -4.1730  -21.2670   36.1090 O.3   1071  INH1071    -0.3793
     72  C29       -2.9640  -21.2160   36.8850 C.3   1071  INH1071     0.0368
     73  H36       -2.4980  -22.2010   36.8960 H     1071  INH1071     0.0524
     74  H37       -3.2000  -20.9140   37.9060 H     1071  INH1071     0.0524
     75  H38       -2.2780  -20.4940   36.4420 H     1071  INH1071     0.0524
     76  C30       -5.6810  -20.0330   34.7400 C.3   1071  INH1071     0.0061
     77  H39       -5.8760  -21.0740   34.4840 H     1071  INH1071     0.0319
     78  H40       -5.0740  -19.5740   33.9590 H     1071  INH1071     0.0319
     79  C31       -7.6040  -19.1310   36.1870 C.3   1071  INH1071     0.0212
     80  H41       -8.6850  -19.1480   36.0510 H     1071  INH1071     0.0358
     81  C32       -7.1200  -20.2350   37.1230 C.3   1071  INH1071     0.0693
     82  H42       -7.7430  -20.3250   38.0130 H     1071  INH1071     0.0603
     83  O7        -7.1900  -21.5790   36.6440 O.3   1071  INH1071    -0.3790
     84  C33       -8.5100  -22.1280   36.6910 C.3   1071  INH1071     0.0368
     85  H43       -8.4920  -23.1500   36.3130 H     1071  INH1071     0.0524
     86  H44       -9.1770  -21.5250   36.0750 H     1071  INH1071     0.0524
     87  H45       -8.8670  -22.1270   37.7210 H     1071  INH1071     0.0524
     88  C34       -7.0400  -19.2950   34.7720 C.3   1071  INH1071     0.1102
     89  O8        -7.9780  -20.1180   34.0930 O.3   1071  INH1071    -0.3850
     90  H46       -8.0230  -20.9550   34.5620 H     1071  INH1071     0.2103
     91  C35       -6.9520  -17.9510   34.0390 C.3   1071  INH1071     0.1641
     92  O9        -6.5700  -18.1790   32.6810 O.3   1071  INH1071    -0.3780
     93  H47       -5.7280  -18.6400   32.6900 H     1071  INH1071     0.2106
     94  C36       -8.2900  -17.2170   34.0590 C.3   1071  INH1071     0.0994
     95  H48       -8.5490  -16.8140   33.0800 H     1071  INH1071     0.0631
     96  O10       -9.4130  -18.0540   34.3370 O.3   1071  INH1071    -0.3763
     97  C37      -10.6810  -17.4630   34.0470 C.3   1071  INH1071     0.0369
     98  H49      -11.4750  -18.1700   34.2890 H     1071  INH1071     0.0524
     99  H50      -10.7300  -17.2100   32.9880 H     1071  INH1071     0.0524
    100  H51      -10.8050  -16.5590   34.6430 H     1071  INH1071     0.0524
@<TRIPOS>BOND
     1    11     8    1
     2     9     8    1
     3     8    10    1
     4     8     6    1
     5     5     3    1
     6     4     3    1
     7     7     6    1
     8     3     6    1
     9     3     2    1
    10     6    12    1
    11    54    52    1
    12    53    52    1
    13    61    59    1
    14    92    93    1
    15    92    91    1
    16    57    55    1
    17    30    28    1
    18    99    97    1
    19    52    55    1
    20    52    50    1
    21    95    94    1
    22    60    59    1
    23    26    25    2
    24    29    28    1
    25     2     1    2
    26     2    14   am
    27    12    13    2
    28    12    14   am
    29    59    50    1
    30    59    31    1
    31    55    58    1
    32    55    56    1
    33    28    31    1
    34    28    27    1
    35    78    76    1
    36    14    15    1
    37    91    94    1
    38    91    88    1
    39    91    48    1
    40    50    51    1
    41    50    48    1
    42    97    98    1
    43    97    96    1
    44    97   100    1
    45    94    96    1
    46    94    46    1
    47    89    90    1
    48    89    88    1
    49    25    27    1
    50    25    24    1
    51    31    46    1
    52    31    32    1
    53    77    76    1
    54    76    88    1
    55    76    69    1
    56    88    79    1
    57    48    49    1
    58    48    45    1
    59    46    47    1
    60    46    45    1
    61    34    32    1
    62    15    24   ar
    63    15    16   ar
    64    33    32    1
    65    32    35    1
    66    24    22   ar
    67    45    62    1
    68    45    38    1
    69    70    69    1
    70    69    71    1
    71    69    67    1
    72    80    79    1
    73    86    84    1
    74    71    72    1
    75    79    62    1
    76    79    81    1
    77    17    16    1
    78    85    84    1
    79    16    18   ar
    80    75    72    1
    81    40    38    1
    82    40    41    1
    83    83    84    1
    84    83    81    1
    85    84    87    1
    86    22    23    1
    87    22    20   ar
    88    62    63    1
    89    62    64    1
    90    35    38    1
    91    35    36    1
    92    35    37    1
    93    72    73    1
    94    72    74    1
    95    38    39    1
    96    81    67    1
    97    81    82    1
    98    42    41    1
    99    66    64    1
   100    67    64    1
   101    67    68    1
   102    41    44    1
   103    41    43    1
   104    64    65    1
   105    18    20   ar
   106    18    19    1
   107    20    21    1
