@<TRIPOS>MOLECULE
/tmp/ewbell/vina_2byr_2byr_lig/vina/vina1.pdbqt
 52 59 0 0 0
SMALL
GASTEIGER

@<TRIPOS>ATOM
      1  C14       -8.0900  -14.7450   34.2870 C.3   1071  INH1071     0.0130
      2  C15       -7.7230  -13.6580   35.3030 C.3   1071  INH1071     0.0160
      3  C16       -7.7430  -14.1700   36.7290 C.3   1071  INH1071     0.0340
      4  C17       -6.8820  -15.4160   36.8450 C.3   1071  INH1071     0.1320
      5  C19       -7.3480  -16.5370   35.8860 C.3   1071  INH1071     0.0290
      6  C20       -8.4770  -16.0770   34.9600 C.3   1071  INH1071     0.0430
      7  C21       -6.3860  -16.9780   34.7880 C.3   1071  INH1071     0.2390
      8  N2        -5.8420  -15.7900   34.0610 N.4   1071  INH1071    -0.0620
      9  H23       -5.4380  -15.2320   34.8000 H     1071  INH1071     0.2800
     10  C24       -6.8850  -14.9810   33.3790 C.3   1071  INH1071     0.2470
     11  C25       -7.6770  -17.7620   36.7760 C.3   1071  INH1071     0.0090
     12  C26       -6.4870  -18.2250   37.6400 C.3   1071  INH1071     0.0150
     13  C27       -6.2920  -19.7150   37.3530 C.3   1071  INH1071     0.0440
     14  C28       -5.3750  -19.9770   36.1490 C.3   1071  INH1071     0.1300
     15  C30       -6.1010  -20.0020   34.8000 C.3   1071  INH1071     0.0740
     16  C31       -8.1130  -19.0630   36.0950 C.3   1071  INH1071     0.0580
     17  C32       -7.7070  -20.1590   37.0780 C.3   1071  INH1071     0.1350
     18  C34       -7.4520  -19.2510   34.7260 C.3   1071  INH1071     0.1020
     19  C35       -7.2990  -17.9180   33.9840 C.3   1071  INH1071     0.1450
     20  C36       -8.6280  -17.1720   33.9000 C.3   1071  INH1071     0.1660
     21  C13       -9.2430  -14.1740   33.4770 C.3   1071  INH1071     0.1900
     22  O4       -10.1150  -13.5170   34.3900 O.3   1071  INH1071    -0.3170
     23  C12      -11.5350  -13.7230   34.3940 C.2   1071  INH1071     0.2950
     24  O3       -12.0910  -14.0540   33.3640 O.2   1071  INH1071    -0.2590
     25  C11      -12.2700  -13.4940   35.6760 C.ar  1071  INH1071     0.0660
     26  C6       -13.7520  -13.3860   35.7350 C.ar  1071  INH1071     0.0610
     27  C7       -14.3620  -13.1630   36.9550 C.ar  1071  INH1071     0.0310
     28  C8       -13.5850  -13.0450   38.1050 C.ar  1071  INH1071     0.0020
     29  C9       -12.1930  -13.1460   38.0550 C.ar  1071  INH1071     0.0010
     30  C10      -11.5420  -13.3690   36.8530 C.ar  1071  INH1071     0.0200
     31  N1       -14.5430  -13.4920   34.5880 N.am  1071  INH1071    -0.2510
     32  C1       -14.9710  -14.6460   34.0770 C.2   1071  INH1071     0.2320
     33  O1       -14.7760  -15.7690   34.5350 O.2   1071  INH1071    -0.2730
     34  C2       -15.7590  -14.3670   32.8150 C.3   1071  INH1071     0.1170
     35  C3       -15.7840  -12.8450   32.7430 C.3   1071  INH1071     0.0830
     36  C4       -15.2550  -12.3050   31.4240 C.3   1071  INH1071     0.0200
     37  C5       -14.9090  -12.4300   33.8780 C.2   1071  INH1071     0.2350
     38  O2       -14.6430  -11.2650   34.1240 O.2   1071  INH1071    -0.2720
     39  C22       -4.7700  -16.1210   33.0910 C.3   1071  INH1071     0.2310
     40  C23       -3.6250  -16.8780   33.7280 C.3   1071  INH1071     0.0340
     41  O10       -9.7760  -17.9960   34.1080 O.3   1071  INH1071    -0.3870
     42  C37      -10.9540  -17.2860   34.4970 C.3   1071  INH1071     0.2020
     43  O5        -5.5230  -15.0620   36.6060 O.3   1071  INH1071    -0.3900
     44  C18       -4.9200  -14.1450   37.5260 C.3   1071  INH1071     0.2020
     45  O9        -6.8240  -18.1680   32.6590 O.3   1071  INH1071    -0.3820
     46  H47       -7.5870  -18.1940   32.0780 H     1071  INH1071     0.2100
     47  O8        -8.3470  -20.0750   33.9930 O.3   1071  INH1071    -0.3860
     48  H46       -7.8200  -20.6710   33.4550 H     1071  INH1071     0.2100
     49  O7        -7.7560  -21.5080   36.6120 O.3   1071  INH1071    -0.3900
     50  C33       -9.0660  -22.0800   36.6720 C.3   1071  INH1071     0.2020
     51  O6        -4.7060  -21.2300   36.2880 O.3   1071  INH1071    -0.3900
     52  C29       -3.8840  -21.3200   37.4640 C.3   1071  INH1071     0.2020
@<TRIPOS>BOND
     1    36    35    1
     2    46    45    1
     3    45    19    1
     4    35    34    1
     5    35    37    1
     6    34    32    1
     7    39    40    1
     8    39     8    1
     9    24    23    2
    10    10     8    1
    11    10     1    1
    12    48    47    1
    13    21     1    1
    14    21    22    1
    15    37    38    2
    16    37    31   am
    17    20    19    1
    18    20    41    1
    19    20     6    1
    20    19    18    1
    21    19     7    1
    22    47    18    1
    23     8     7    1
    24     8     9    1
    25    32    33    2
    26    32    31   am
    27    41    42    1
    28     1     6    1
    29     1     2    1
    30    22    23    1
    31    23    25    1
    32    31    26    1
    33    18    15    1
    34    18    16    1
    35     7     5    1
    36    15    14    1
    37     6     5    1
    38     2     3    1
    39    25    26   ar
    40    25    30   ar
    41    26    27   ar
    42     5    11    1
    43     5     4    1
    44    16    11    1
    45    16    17    1
    46    14    51    1
    47    14    13    1
    48    51    52    1
    49    43     4    1
    50    43    44    1
    51    49    50    1
    52    49    17    1
    53     3     4    1
    54    11    12    1
    55    30    29   ar
    56    27    28   ar
    57    17    13    1
    58    13    12    1
    59    29    28   ar
