@<TRIPOS>MOLECULE
/tmp/ewbell/vina_2byr_2byr_lig/vina/vina2.pdbqt
 52 59 0 0 0
SMALL
GASTEIGER

@<TRIPOS>ATOM
      1  C14      -15.0830  -12.5000   34.1290 C.3   1071  INH1071     0.0130
      2  C15      -14.1490  -12.7850   32.9470 C.3   1071  INH1071     0.0160
      3  C16      -14.5900  -13.9860   32.1380 C.3   1071  INH1071     0.0340
      4  C17      -16.0450  -13.8300   31.7290 C.3   1071  INH1071     0.1320
      5  C19      -16.9780  -13.6580   32.9520 C.3   1071  INH1071     0.0290
      6  C20      -16.2000  -13.5540   34.2660 C.3   1071  INH1071     0.0430
      7  C21      -17.7340  -12.3410   33.0880 C.3   1071  INH1071     0.2390
      8  N2       -16.8060  -11.1840   32.9070 N.4   1071  INH1071    -0.0620
      9  H23      -16.3910  -11.3590   32.0020 H     1071  INH1071     0.2800
     10  C24      -15.7190  -11.1280   33.9190 C.3   1071  INH1071     0.2470
     11  C25      -18.0070  -14.8150   32.8800 C.3   1071  INH1071     0.0090
     12  C26      -18.8090  -14.8350   31.5630 C.3   1071  INH1071     0.0150
     13  C27      -20.2890  -14.8450   31.9530 C.3   1071  INH1071     0.0440
     14  C28      -20.8650  -13.4340   32.1500 C.3   1071  INH1071     0.1300
     15  C30      -20.6860  -12.8760   33.5660 C.3   1071  INH1071     0.0740
     16  C31      -19.1130  -14.8740   33.9370 C.3   1071  INH1071     0.0580
     17  C32      -20.2560  -15.6150   33.2490 C.3   1071  INH1071     0.1350
     18  C34      -19.5400  -13.4810   34.4100 C.3   1071  INH1071     0.1020
     19  C35      -18.3470  -12.5200   34.4870 C.3   1071  INH1071     0.1450
     20  C36      -17.2130  -13.1050   35.3230 C.3   1071  INH1071     0.1660
     21  C13      -14.1890  -12.4720   35.3580 C.3   1071  INH1071     0.1900
     22  O4       -12.8980  -12.9120   34.9510 O.3   1071  INH1071    -0.3170
     23  C12      -12.1620  -13.9220   35.6580 C.2   1071  INH1071     0.2950
     24  O3       -11.5950  -13.6290   36.6940 O.2   1071  INH1071    -0.2590
     25  C11      -12.1130  -15.2930   35.0630 C.ar  1071  INH1071     0.0660
     26  C6       -10.8540  -15.8850   34.5360 C.ar  1071  INH1071     0.0610
     27  C7       -10.8860  -17.1550   33.9910 C.ar  1071  INH1071     0.0310
     28  C8       -12.0880  -17.8580   33.9450 C.ar  1071  INH1071     0.0020
     29  C9       -13.2720  -17.3060   34.4390 C.ar  1071  INH1071     0.0010
     30  C10      -13.2840  -16.0360   34.9930 C.ar  1071  INH1071     0.0200
     31  N1        -9.6440  -15.1880   34.5660 N.am  1071  INH1071    -0.2510
     32  C1        -9.3620  -14.1420   33.7910 C.2   1071  INH1071     0.2320
     33  O1       -10.1100  -13.6130   32.9720 O.2   1071  INH1071    -0.2730
     34  C2        -7.9490  -13.6810   34.0730 C.3   1071  INH1071     0.1170
     35  C3        -7.5020  -14.5910   35.2120 C.3   1071  INH1071     0.0830
     36  C4        -6.2110  -15.3330   34.9070 C.3   1071  INH1071     0.0200
     37  C5        -8.6400  -15.5430   35.3620 C.2   1071  INH1071     0.2350
     38  O2        -8.6370  -16.4670   36.1590 O.2   1071  INH1071    -0.2720
     39  C22      -17.4910   -9.8690   32.8540 C.3   1071  INH1071     0.2310
     40  C23      -18.6930   -9.8770   31.9340 C.3   1071  INH1071     0.0340
     41  O10      -17.6140  -14.1620   36.1960 O.3   1071  INH1071    -0.3870
     42  C37      -16.5470  -15.0000   36.6440 C.3   1071  INH1071     0.2020
     43  O5       -16.1570  -12.7290   30.8330 O.3   1071  INH1071    -0.3900
     44  C18      -15.5510  -12.8760   29.5440 C.3   1071  INH1071     0.2020
     45  O9       -18.7710  -11.2890   35.0770 O.3   1071  INH1071    -0.3820
     46  H47      -19.2450  -10.7940   34.4060 H     1071  INH1071     0.2100
     47  O8       -20.0470  -13.6750   35.7230 O.3   1071  INH1071    -0.3860
     48  H46      -19.4050  -13.3120   36.3390 H     1071  INH1071     0.2100
     49  O7       -21.5280  -15.6090   33.8990 O.3   1071  INH1071    -0.3900
     50  C33      -22.2650  -16.8210   33.7110 C.3   1071  INH1071     0.2020
     51  O6       -22.2630  -13.4160   31.8650 O.3   1071  INH1071    -0.3900
     52  C29      -23.0210  -12.5580   32.7350 C.3   1071  INH1071     0.2020
@<TRIPOS>BOND
     1    44    43    1
     2    43     4    1
     3    12    13    1
     4    12    11    1
     5     4     3    1
     6     4     5    1
     7    51    14    1
     8    51    52    1
     9    40    39    1
    10    13    14    1
    11    13    17    1
    12     9     8    1
    13     3     2    1
    14    14    15    1
    15    39     8    1
    16    11     5    1
    17    11    16    1
    18     8     7    1
    19     8    10    1
    20     2     1    1
    21     5     7    1
    22     5     6    1
    23    33    32    2
    24     7    19    1
    25    17    49    1
    26    17    16    1
    27    15    18    1
    28    50    49    1
    29    32    34    1
    30    32    31   am
    31    10     1    1
    32    16    18    1
    33    28    27   ar
    34    28    29   ar
    35    27    26   ar
    36    34    35    1
    37     1     6    1
    38     1    21    1
    39     6    20    1
    40    46    45    1
    41    18    19    1
    42    18    47    1
    43    29    30   ar
    44    19    45    1
    45    19    20    1
    46    26    31    1
    47    26    25   ar
    48    31    37   am
    49    36    35    1
    50    22    21    1
    51    22    23    1
    52    30    25   ar
    53    25    23    1
    54    35    37    1
    55    20    41    1
    56    37    38    2
    57    23    24    2
    58    47    48    1
    59    41    42    1
