@<TRIPOS>MOLECULE
/tmp/ewbell/vina_2byr_2byr_lig/vina/vina4.pdbqt
 52 59 0 0 0
SMALL
GASTEIGER

@<TRIPOS>ATOM
      1  C14       -8.4960  -15.2830   34.6250 C.3   1071  INH1071     0.0130
      2  C15       -8.2680  -14.1930   35.6770 C.3   1071  INH1071     0.0160
      3  C16       -8.0210  -14.7650   37.0580 C.3   1071  INH1071     0.0340
      4  C17       -6.9020  -15.7900   37.0030 C.3   1071  INH1071     0.1320
      5  C19       -7.2130  -16.9390   36.0140 C.3   1071  INH1071     0.0290
      6  C20       -8.5090  -16.6990   35.2350 C.3   1071  INH1071     0.0430
      7  C21       -6.3040  -17.0980   34.8010 C.3   1071  INH1071     0.2390
      8  N2        -6.1130  -15.7850   34.1140 N.4   1071  INH1071    -0.0620
      9  H23       -5.7620  -15.1880   34.8490 H     1071  INH1071     0.2800
     10  C24       -7.3750  -15.1980   33.5920 C.3   1071  INH1071     0.2470
     11  C25       -7.1700  -18.2490   36.8420 C.3   1071  INH1071     0.0090
     12  C26       -5.8210  -18.4740   37.5540 C.3   1071  INH1071     0.0150
     13  C27       -5.3380  -19.8670   37.1440 C.3   1071  INH1071     0.0440
     14  C28       -4.5210  -19.8580   35.8420 C.3   1071  INH1071     0.1300
     15  C30       -5.3660  -19.9780   34.5700 C.3   1071  INH1071     0.0740
     16  C31       -7.3820  -19.5790   36.1140 C.3   1071  INH1071     0.0580
     17  C32       -6.6430  -20.6020   36.9720 C.3   1071  INH1071     0.1350
     18  C34       -6.8480  -19.5470   34.6780 C.3   1071  INH1071     0.1020
     19  C35       -7.0710  -18.1790   34.0220 C.3   1071  INH1071     0.1450
     20  C36       -8.5310  -17.7470   34.1180 C.3   1071  INH1071     0.1660
     21  C13       -9.8270  -14.9470   33.9710 C.3   1071  INH1071     0.1900
     22  O4       -10.8230  -15.7360   34.6110 O.3   1071  INH1071    -0.3170
     23  C12      -12.0450  -16.1220   33.9630 C.2   1071  INH1071     0.2950
     24  O3       -12.1920  -15.8820   32.7800 O.2   1071  INH1071    -0.2590
     25  C11      -13.0950  -16.7880   34.7940 C.ar  1071  INH1071     0.0660
     26  C6       -14.1410  -16.0180   35.5180 C.ar  1071  INH1071     0.0610
     27  C7       -15.0740  -16.7010   36.2760 C.ar  1071  INH1071     0.0310
     28  C8       -15.0220  -18.0910   36.3490 C.ar  1071  INH1071     0.0020
     29  C9       -14.0420  -18.8180   35.6710 C.ar  1071  INH1071     0.0010
     30  C10      -13.0880  -18.1730   34.9000 C.ar  1071  INH1071     0.0200
     31  N1       -14.1990  -14.6230   35.4630 N.am  1071  INH1071    -0.2510
     32  C1       -13.7120  -13.8150   36.4030 C.2   1071  INH1071     0.2320
     33  O1       -13.1190  -14.1510   37.4250 O.2   1071  INH1071    -0.2730
     34  C2       -13.9970  -12.3790   36.0200 C.3   1071  INH1071     0.1170
     35  C3       -14.6540  -12.5030   34.6500 C.3   1071  INH1071     0.0830
     36  C4       -16.0100  -11.8190   34.5780 C.3   1071  INH1071     0.0200
     37  C5       -14.7910  -13.9770   34.4640 C.2   1071  INH1071     0.2350
     38  O2       -15.3210  -14.4790   33.4870 O.2   1071  INH1071    -0.2720
     39  C22       -5.1050  -15.8200   33.0250 C.3   1071  INH1071     0.2310
     40  C23       -3.8560  -16.5790   33.4150 C.3   1071  INH1071     0.0340
     41  O10       -9.4430  -18.8160   34.3740 O.3   1071  INH1071    -0.3870
     42  C37      -10.2770  -19.1650   33.2680 C.3   1071  INH1071     0.2020
     43  O5        -5.6870  -15.1290   36.6630 O.3   1071  INH1071    -0.3900
     44  C18       -5.2040  -14.1430   37.5820 C.3   1071  INH1071     0.2020
     45  O9        -6.6990  -18.2520   32.6440 O.3   1071  INH1071    -0.3820
     46  H47       -6.6300  -17.3520   32.3150 H     1071  INH1071     0.2100
     47  O8        -7.6160  -20.5140   33.9760 O.3   1071  INH1071    -0.3860
     48  H46       -7.2830  -20.5520   33.0760 H     1071  INH1071     0.2100
     49  O7        -6.4470  -21.9040   36.4180 O.3   1071  INH1071    -0.3900
     50  C33       -7.6380  -22.6970   36.4000 C.3   1071  INH1071     0.2020
     51  O6        -3.5840  -20.9340   35.8280 O.3   1071  INH1071    -0.3900
     52  C29       -3.5440  -21.6510   34.5830 C.3   1071  INH1071     0.2020
@<TRIPOS>BOND
     1    46    45    1
     2    45    19    1
     3    24    23    2
     4    39    40    1
     5    39     8    1
     6    48    47    1
     7    42    41    1
     8    38    37    2
     9    10     8    1
    10    10     1    1
    11    23    22    1
    12    23    25    1
    13    21    22    1
    14    21     1    1
    15    47    18    1
    16    19    20    1
    17    19    18    1
    18    19     7    1
    19     8     7    1
    20     8     9    1
    21    20    41    1
    22    20     6    1
    23    37    35    1
    24    37    31   am
    25    15    18    1
    26    15    14    1
    27    36    35    1
    28    52    51    1
    29     1     6    1
    30     1     2    1
    31    35    34    1
    32    18    16    1
    33    25    30   ar
    34    25    26   ar
    35     7     5    1
    36    30    29   ar
    37     6     5    1
    38    31    26    1
    39    31    32   am
    40    26    27   ar
    41    29    28   ar
    42     2     3    1
    43    51    14    1
    44    14    13    1
    45     5    11    1
    46     5     4    1
    47    34    32    1
    48    16    11    1
    49    16    17    1
    50    27    28   ar
    51    50    49    1
    52    32    33    2
    53    49    17    1
    54    43     4    1
    55    43    44    1
    56    11    12    1
    57    17    13    1
    58     4     3    1
    59    13    12    1
