@<TRIPOS>MOLECULE
/tmp/ewbell/vina_2byr_2byr_lig/vina/vina5.pdbqt
 52 59 0 0 0
SMALL
GASTEIGER

@<TRIPOS>ATOM
      1  C14       -3.3030  -16.8610   36.9570 C.3   1071  INH1071     0.0130
      2  C15       -2.3130  -16.5160   35.8400 C.3   1071  INH1071     0.0160
      3  C16       -2.3110  -17.5470   34.7300 C.3   1071  INH1071     0.0340
      4  C17       -3.7270  -17.7730   34.2290 C.3   1071  INH1071     0.1320
      5  C19       -4.6780  -18.2310   35.3600 C.3   1071  INH1071     0.0290
      6  C20       -3.9980  -18.2190   36.7310 C.3   1071  INH1071     0.0430
      7  C21       -5.8380  -17.3120   35.7280 C.3   1071  INH1071     0.2390
      8  N2        -5.3550  -15.9100   35.9170 N.4   1071  INH1071    -0.0620
      9  H23       -4.8930  -15.7040   35.0420 H     1071  INH1071     0.2800
     10  C24       -4.3640  -15.7650   37.0160 C.3   1071  INH1071     0.2470
     11  C25       -5.2540  -19.6000   34.9160 C.3   1071  INH1071     0.0090
     12  C26       -5.9850  -19.5430   33.5600 C.3   1071  INH1071     0.0150
     13  C27       -7.3780  -20.1310   33.7890 C.3   1071  INH1071     0.0440
     14  C28       -8.4000  -19.0840   34.2570 C.3   1071  INH1071     0.1300
     15  C30       -8.4390  -18.8780   35.7740 C.3   1071  INH1071     0.0740
     16  C31       -6.2880  -20.2830   35.8160 C.3   1071  INH1071     0.0580
     17  C32       -7.1030  -21.1530   34.8640 C.3   1071  INH1071     0.1350
     18  C34       -7.1670  -19.2730   36.5610 C.3   1071  INH1071     0.1020
     19  C35       -6.3720  -18.0300   36.9780 C.3   1071  INH1071     0.1450
     20  C36       -5.1180  -18.4080   37.7600 C.3   1071  INH1071     0.1660
     21  C13       -2.4880  -16.8600   38.2400 C.3   1071  INH1071     0.1900
     22  O4        -1.2890  -17.5810   37.9790 O.3   1071  INH1071    -0.3170
     23  C12       -0.8910  -18.7310   38.7410 C.2   1071  INH1071     0.2950
     24  O3        -1.2680  -18.8400   39.8920 O.2   1071  INH1071    -0.2590
     25  C11       -0.0040  -19.7350   38.0770 C.ar  1071  INH1071     0.0660
     26  C6         0.8700  -20.6570   38.8500 C.ar  1071  INH1071     0.0610
     27  C7         1.6720  -21.5530   38.1670 C.ar  1071  INH1071     0.0310
     28  C8         1.6490  -21.5800   36.7750 C.ar  1071  INH1071     0.0020
     29  C9         0.8300  -20.7160   36.0450 C.ar  1071  INH1071     0.0010
     30  C10        0.0110  -19.8030   36.6890 C.ar  1071  INH1071     0.0200
     31  N1         0.9110  -20.6340   40.2460 N.am  1071  INH1071    -0.2510
     32  C1         0.1830  -21.4280   41.0300 C.2   1071  INH1071     0.2320
     33  O1        -0.5940  -22.3070   40.6660 O.2   1071  INH1071    -0.2730
     34  C2         0.4610  -21.0850   42.4780 C.3   1071  INH1071     0.1170
     35  C3         1.5430  -20.0160   42.3860 C.3   1071  INH1071     0.0830
     36  C4         1.1770  -18.7350   43.1180 C.3   1071  INH1071     0.0200
     37  C5         1.6680  -19.7750   40.9200 C.2   1071  INH1071     0.2350
     38  O2         2.4180  -18.9390   40.4430 O.2   1071  INH1071    -0.2720
     39  C22       -6.4440  -14.9210   36.1090 C.3   1071  INH1071     0.2310
     40  C23       -6.1760  -13.9780   37.2620 C.3   1071  INH1071     0.0340
     41  O10       -5.1480  -19.7240   38.3150 O.3   1071  INH1071    -0.3870
     42  C37       -3.9020  -20.4220   38.2590 C.3   1071  INH1071     0.2020
     43  O5        -4.1940  -16.5780   33.6110 O.3   1071  INH1071    -0.3900
     44  C18       -3.5050  -16.1430   32.4340 C.3   1071  INH1071     0.2020
     45  O9        -7.1950  -17.1980   37.7980 O.3   1071  INH1071    -0.3820
     46  H47       -7.9550  -16.9350   37.2740 H     1071  INH1071     0.2100
     47  O8        -7.5950  -19.9500   37.7340 O.3   1071  INH1071    -0.3860
     48  H46       -8.5110  -19.7050   37.8930 H     1071  INH1071     0.2100
     49  O7        -8.3100  -21.7260   35.3690 O.3   1071  INH1071    -0.3900
     50  C33       -8.7170  -22.9010   34.6610 C.3   1071  INH1071     0.2020
     51  O6        -9.7180  -19.4480   33.8480 O.3   1071  INH1071    -0.3900
     52  C29       -9.7890  -19.9520   32.5030 C.3   1071  INH1071     0.2020
@<TRIPOS>BOND
     1    44    43    1
     2    52    51    1
     3    12    13    1
     4    12    11    1
     5    43     4    1
     6    13    14    1
     7    13    17    1
     8    51    14    1
     9     4     3    1
    10     4     5    1
    11    14    15    1
    12    50    49    1
    13     3     2    1
    14    17    49    1
    15    17    16    1
    16    11     5    1
    17    11    16    1
    18     9     8    1
    19     5     7    1
    20     5     6    1
    21     7     8    1
    22     7    19    1
    23    15    18    1
    24    16    18    1
    25     2     1    1
    26     8    39    1
    27     8    10    1
    28    29    30   ar
    29    29    28   ar
    30    39    40    1
    31    18    19    1
    32    18    47    1
    33    30    25   ar
    34     6     1    1
    35     6    20    1
    36    28    27   ar
    37     1    10    1
    38     1    21    1
    39    19    20    1
    40    19    45    1
    41    46    45    1
    42    47    48    1
    43    20    41    1
    44    22    21    1
    45    22    23    1
    46    25    23    1
    47    25    26   ar
    48    27    26   ar
    49    42    41    1
    50    23    24    2
    51    26    31    1
    52    31    37   am
    53    31    32   am
    54    38    37    2
    55    33    32    2
    56    37    35    1
    57    32    34    1
    58    35    34    1
    59    35    36    1
