@<TRIPOS>MOLECULE
/tmp/ewbell/vina_2byr_2byr_lig/vina/vina3.pdbqt
 52 59 0 0 0
SMALL
GASTEIGER

@<TRIPOS>ATOM
      1  C14       -2.2960  -19.1860   36.4100 C.3   1071  INH1071     0.0130
      2  C15       -1.6560  -19.4770   35.0480 C.3   1071  INH1071     0.0160
      3  C16       -0.1440  -19.4000   35.0910 C.3   1071  INH1071     0.0340
      4  C17        0.3890  -20.2850   36.2050 C.3   1071  INH1071     0.1320
      5  C19       -0.1900  -19.8930   37.5860 C.3   1071  INH1071     0.0290
      6  C20       -1.2550  -18.7990   37.4800 C.3   1071  INH1071     0.0430
      7  C21       -1.0570  -20.9170   38.3100 C.3   1071  INH1071     0.2390
      8  N2        -2.0960  -21.4670   37.3870 N.4   1071  INH1071    -0.0620
      9  H23       -1.5540  -21.8210   36.6120 H     1071  INH1071     0.2800
     10  C24       -3.0380  -20.4390   36.8710 C.3   1071  INH1071     0.2470
     11  C25        1.0260  -19.5500   38.4850 C.3   1071  INH1071     0.0090
     12  C26        2.0360  -20.7080   38.6110 C.3   1071  INH1071     0.0150
     13  C27        2.2370  -20.9520   40.1070 C.3   1071  INH1071     0.0440
     14  C28        1.2110  -21.9330   40.6960 C.3   1071  INH1071     0.1300
     15  C30       -0.0890  -21.2740   41.1670 C.3   1071  INH1071     0.0740
     16  C31        0.7690  -19.1790   39.9490 C.3   1071  INH1071     0.0580
     17  C32        2.0590  -19.5630   40.6680 C.3   1071  INH1071     0.1350
     18  C34       -0.4460  -19.9100   40.5280 C.3   1071  INH1071     0.1020
     19  C35       -1.5610  -20.0670   39.4880 C.3   1071  INH1071     0.1450
     20  C36       -1.9260  -18.7260   38.8560 C.3   1071  INH1071     0.1660
     21  C13       -3.2870  -18.0600   36.1640 C.3   1071  INH1071     0.1900
     22  O4        -4.2750  -18.1360   37.1860 O.3   1071  INH1071    -0.3170
     23  C12       -5.5820  -17.5600   37.0480 C.2   1071  INH1071     0.2950
     24  O3        -5.7410  -16.3800   37.2970 O.2   1071  INH1071    -0.2590
     25  C11       -6.6990  -18.4580   36.6210 C.ar  1071  INH1071     0.0660
     26  C6        -7.5540  -18.1570   35.4410 C.ar  1071  INH1071     0.0610
     27  C7        -8.5750  -19.0280   35.1120 C.ar  1071  INH1071     0.0310
     28  C8        -8.7870  -20.1690   35.8830 C.ar  1071  INH1071     0.0020
     29  C9        -7.9860  -20.4550   36.9910 C.ar  1071  INH1071     0.0010
     30  C10       -6.9520  -19.6090   37.3560 C.ar  1071  INH1071     0.0200
     31  N1        -7.3600  -17.0110   34.6650 N.am  1071  INH1071    -0.2510
     32  C1        -6.4940  -16.9280   33.6550 C.2   1071  INH1071     0.2320
     33  O1        -5.7720  -17.8270   33.2310 O.2   1071  INH1071    -0.2730
     34  C2        -6.5310  -15.5270   33.0850 C.3   1071  INH1071     0.1170
     35  C3        -7.6350  -14.8480   33.8870 C.3   1071  INH1071     0.0830
     36  C4        -7.1760  -13.5650   34.5600 C.3   1071  INH1071     0.0200
     37  C5        -8.0100  -15.8770   34.9010 C.2   1071  INH1071     0.2350
     38  O2        -8.8460  -15.6850   35.7680 O.2   1071  INH1071    -0.2720
     39  C22       -2.8720  -22.5930   37.9630 C.3   1071  INH1071     0.2310
     40  C23       -4.1870  -22.8170   37.2470 C.3   1071  INH1071     0.0340
     41  O10       -1.5150  -17.5900   39.6170 O.3   1071  INH1071    -0.3870
     42  C37       -2.0390  -16.3430   39.1540 C.3   1071  INH1071     0.2020
     43  O5         0.1040  -21.6440   35.8920 O.3   1071  INH1071    -0.3900
     44  C18        1.2010  -22.5640   35.9320 C.3   1071  INH1071     0.2020
     45  O9        -2.7220  -20.6110   40.1190 O.3   1071  INH1071    -0.3820
     46  H47       -3.4640  -20.4800   39.5240 H     1071  INH1071     0.2100
     47  O8        -0.9190  -19.0720   41.5730 O.3   1071  INH1071    -0.3860
     48  H46       -0.4050  -18.2610   41.5490 H     1071  INH1071     0.2100
     49  O7         2.0380  -19.5690   42.0960 O.3   1071  INH1071    -0.3900
     50  C33        2.2830  -18.2820   42.6710 C.3   1071  INH1071     0.2020
     51  O6         1.7610  -22.6240   41.8170 O.3   1071  INH1071    -0.3900
     52  C29        3.1270  -23.0340   41.6320 C.3   1071  INH1071     0.2020
@<TRIPOS>BOND
     1    34    32    1
     2    34    35    1
     3    33    32    2
     4    32    31   am
     5    35    36    1
     6    35    37    1
     7    31    37   am
     8    31    26    1
     9    37    38    2
    10     2     3    1
    11     2     1    1
    12     3     4    1
    13    27    26   ar
    14    27    28   ar
    15    26    25   ar
    16    28    29   ar
    17    43    44    1
    18    43     4    1
    19    21     1    1
    20    21    22    1
    21     4     5    1
    22     1    10    1
    23     1     6    1
    24     9     8    1
    25    25    23    1
    26    25    30   ar
    27    10     8    1
    28    29    30   ar
    29    23    22    1
    30    23    24    2
    31    40    39    1
    32     8    39    1
    33     8     7    1
    34     6     5    1
    35     6    20    1
    36     5     7    1
    37     5    11    1
    38     7    19    1
    39    11    12    1
    40    11    16    1
    41    12    13    1
    42    20    19    1
    43    20    41    1
    44    42    41    1
    45    19    45    1
    46    19    18    1
    47    46    45    1
    48    16    18    1
    49    16    17    1
    50    13    17    1
    51    13    14    1
    52    18    15    1
    53    18    47    1
    54    17    49    1
    55    14    15    1
    56    14    51    1
    57    48    47    1
    58    52    51    1
    59    49    50    1
