@<TRIPOS>MOLECULE
./ligand/2qdt_lig.pdb
 20 19 0 0 0
SMALL
GASTEIGER

@<TRIPOS>ATOM
      1  N1        11.7410   28.8910   32.5400 N.am  541  INH541     -0.3024
      2  C1        11.4840   28.1320   33.7660 C.3   541  INH541      0.1218
      3  C2        12.1340   28.7300   35.0060 C.2   541  INH541      0.3756
      4  O1        12.2670   28.0220   36.0600 O.co2 541  INH541     -0.2443
      5  C3         9.9690   28.0440   33.9450 C.3   541  INH541     -0.0361
      6  O2        12.5230   29.9380   34.9390 O.co2 541  INH541     -0.2443
      7  H1        11.3720   29.8190   32.5000 H     541  INH541      0.1495
      8  H2        11.8870   27.1170   33.6340 H     541  INH541      0.0613
      9  H3         9.7400   27.4780   34.8600 H     541  INH541      0.0253
     10  H4         9.5260   27.5330   33.0770 H     541  INH541      0.0253
     11  H5         9.5500   29.0580   34.0270 H     541  INH541      0.0253
     12  C4        13.5230   30.4940   30.4480 C.3   541  INH541      0.0122
     13  C5        12.4230   28.4640   31.4650 C.2   541  INH541      0.2145
     14  S1        12.9820   31.5080   31.6640 S.3   541  INH541     -0.0926
     15  C6        12.5450   29.3450   30.2370 C.3   541  INH541      0.0337
     16  O3        12.9710   27.4010   31.4110 O.2   541  INH541     -0.2758
     17  H6        13.6160   31.0670   29.5140 H     541  INH541      0.0389
     18  H7        14.5060   30.0860   30.7270 H     541  INH541      0.0389
     19  H8        11.5550   29.7620   30.0000 H     541  INH541      0.0367
     20  H9        12.8960   28.7310   29.3940 H     541  INH541      0.0367
@<TRIPOS>BOND
     1     1    13   am
     2     1     7    1
     3     1     2    1
     4     2     8    1
     5     2     5    1
     6     2     3    1
     7     3     6   ar
     8     3     4   ar
     9     5    11    1
    10     5    10    1
    11     5     9    1
    12    12    15    1
    13    12    18    1
    14    12    17    1
    15    12    14    1
    16    13    16    2
    17    13    15    1
    18    15    20    1
    19    15    19    1
