@<TRIPOS>MOLECULE
/tmp/ewbell/vina_2qdt_2qdt_lig/vina/vina2.pdbqt
 14 13 0 0 0
SMALL
GASTEIGER

@<TRIPOS>ATOM
      1  N1        14.0300   28.2940   30.3920 N.am  541  INH541     -0.3470
      2  H1        14.9730   28.3880   30.7130 H     541  INH541      0.1630
      3  C5        13.5250   27.0510   30.3530 C.2   541  INH541      0.2190
      4  O3        14.1380   26.0790   30.6890 O.2   541  INH541     -0.2740
      5  C1        13.3380   29.5280   30.0120 C.3   541  INH541      0.1780
      6  C3        14.0810   30.1240   28.8160 C.3   541  INH541      0.0430
      7  C2        13.2360   30.5460   31.1380 C.2   541  INH541      0.1630
      8  O2        13.3500   30.1160   32.3290 O.2   541  INH541     -0.6480
      9  O1        13.0450   31.7790   30.8670 O.3   541  INH541     -0.7750
     10  H         13.7620   32.3140   30.5890 H     541  INH541      0.1670
     11  C6        12.1150   26.8140   29.8510 C.3   541  INH541      0.1120
     12  C4        11.9180   25.3930   29.3350 C.3   541  INH541      0.0800
     13  S1        10.4700   25.2660   28.5060 S.3   541  INH541     -0.1820
     14  H         10.4880   26.1020   27.4340 H     541  INH541      0.1010
@<TRIPOS>BOND
     1    14    13    1
     2    13    12    1
     3     6     5    1
     4    12    11    1
     5    11     3    1
     6     5     1    1
     7     5     7    1
     8     3     1   am
     9     3     4    2
    10     1     2    1
    11    10     9    1
    12     9     7    1
    13     7     8    2
