@<TRIPOS>MOLECULE
/tmp/ewbell/vina_2qdt_2qdt_lig/vina/vina5.pdbqt
 14 13 0 0 0
SMALL
GASTEIGER

@<TRIPOS>ATOM
      1  N1        14.4470   28.7940   19.3000 N.am  541  INH541     -0.3470
      2  H1        14.4620   29.5140   19.9930 H     541  INH541      0.1630
      3  C5        15.4940   27.9530   19.2790 C.2   541  INH541      0.2190
      4  O3        16.4120   28.0230   20.0440 O.2   541  INH541     -0.2740
      5  C1        13.2850   28.7600   18.4090 C.3   541  INH541      0.1780
      6  C3        13.1080   30.1630   17.8290 C.3   541  INH541      0.0430
      7  C2        12.0040   28.2980   19.0880 C.2   541  INH541      0.1630
      8  O2        11.4310   29.1140   19.8760 O.2   541  INH541     -0.6480
      9  O1        11.5440   27.1310   18.8530 O.3   541  INH541     -0.7750
     10  H         10.6340   26.9510   18.9830 H     541  INH541      0.1670
     11  C6        15.5680   26.8500   18.2420 C.3   541  INH541      0.1120
     12  C4        16.7780   27.0000   17.3280 C.3   541  INH541      0.0800
     13  S1        16.5360   28.2460   16.2370 S.3   541  INH541     -0.1820
     14  H         16.8780   27.8280   14.9880 H     541  INH541      0.1010
@<TRIPOS>BOND
     1    14    13    1
     2    13    12    1
     3    12    11    1
     4     6     5    1
     5    11     3    1
     6     5     7    1
     7     5     1    1
     8     9    10    1
     9     9     7    1
    10     7     8    2
    11     3     1   am
    12     3     4    2
    13     1     2    1
