@<TRIPOS>MOLECULE
/tmp/ewbell/vina_2qdt_2qdt_lig/vina/vina1.pdbqt
 14 13 0 0 0
SMALL
GASTEIGER

@<TRIPOS>ATOM
      1  N1        13.1050   29.5220   32.7760 N.am  541  INH541     -0.3470
      2  H1        13.9760   29.9520   33.0140 H     541  INH541      0.1630
      3  C5        12.1790   29.4550   33.7460 C.2   541  INH541      0.2190
      4  O3        12.3460   29.8880   34.8490 O.2   541  INH541     -0.2740
      5  C1        12.9670   29.0280   31.4050 C.3   541  INH541      0.1780
      6  C3        13.9300   27.8530   31.2380 C.3   541  INH541      0.0430
      7  C2        13.2270   30.0860   30.3420 C.2   541  INH541      0.1630
      8  O2        13.5050   29.6820   29.1690 O.2   541  INH541     -0.6480
      9  O1        13.1600   31.3240   30.6450 O.3   541  INH541     -0.7750
     10  H         13.4020   31.6100   31.5040 H     541  INH541      0.1670
     11  C6        10.8420   28.7920   33.4820 C.3   541  INH541      0.1120
     12  C4         9.8260   29.0870   34.5790 C.3   541  INH541      0.0800
     13  S1         8.4360   28.1840   34.3500 S.3   541  INH541     -0.1820
     14  H          8.6970   26.8760   34.6180 H     541  INH541      0.1010
@<TRIPOS>BOND
     1     8     7    2
     2     7     9    1
     3     7     5    1
     4     9    10    1
     5     6     5    1
     6     5     1    1
     7     1     2    1
     8     1     3   am
     9    11     3    1
    10    11    12    1
    11     3     4    2
    12    13    12    1
    13    13    14    1
