@<TRIPOS>MOLECULE
/tmp/ewbell/vina_2qdt_2qdt_lig/vina/vina4.pdbqt
 14 13 0 0 0
SMALL
GASTEIGER

@<TRIPOS>ATOM
      1  N1        10.9380   30.5440   40.7980 N.am  541  INH541     -0.3470
      2  H1        11.6220   29.9220   40.4180 H     541  INH541      0.1630
      3  C5        11.0160   30.7970   42.1150 C.2   541  INH541      0.2190
      4  O3        11.8570   30.3300   42.8280 O.2   541  INH541     -0.2740
      5  C1         9.9500   31.0890   39.8640 C.3   541  INH541      0.1780
      6  C3         9.5440   29.9630   38.9130 C.3   541  INH541      0.0430
      7  C2        10.4460   32.2960   39.0810 C.2   541  INH541      0.1630
      8  O2        10.8310   33.3080   39.7470 O.2   541  INH541     -0.6480
      9  O1        10.4650   32.2640   37.8050 O.3   541  INH541     -0.7750
     10  H         10.7690   31.4970   37.3610 H     541  INH541      0.1670
     11  C6        10.0010   31.7050   42.7810 C.3   541  INH541      0.1120
     12  C4         9.1200   30.9540   43.7720 C.3   541  INH541      0.0800
     13  S1         7.5410   30.8930   43.2230 S.3   541  INH541     -0.1820
     14  H          7.0080   29.6750   43.5090 H     541  INH541      0.1010
@<TRIPOS>BOND
     1    10     9    1
     2     9     7    1
     3     6     5    1
     4     7     8    2
     5     7     5    1
     6     5     1    1
     7     2     1    1
     8     1     3   am
     9     3    11    1
    10     3     4    2
    11    11    12    1
    12    13    14    1
    13    13    12    1
