@<TRIPOS>MOLECULE
/tmp/ewbell/vina_2qdt_2qdt_lig/vina/vina3.pdbqt
 14 13 0 0 0
SMALL
GASTEIGER

@<TRIPOS>ATOM
      1  N1        12.2740   28.3360   30.4090 N.am  541  INH541     -0.3470
      2  H1        11.3360   28.5880   30.1740 H     541  INH541      0.1630
      3  C5        12.7200   27.1590   29.9410 C.2   541  INH541      0.2190
      4  O3        12.0610   26.4270   29.2610 O.2   541  INH541     -0.2740
      5  C1        13.0260   29.2870   31.2310 C.3   541  INH541      0.1780
      6  C3        12.1620   29.6320   32.4440 C.3   541  INH541      0.0430
      7  C2        13.4340   30.5520   30.4890 C.2   541  INH541      0.1630
      8  O2        14.1780   30.4170   29.4680 O.2   541  INH541     -0.6480
      9  O1        13.0260   31.6900   30.8980 O.3   541  INH541     -0.7750
     10  H         13.3310   32.0300   31.7160 H     541  INH541      0.1670
     11  C6        14.1200   26.6840   30.2750 C.3   541  INH541      0.1120
     12  C4        14.1360   25.7280   31.4620 C.3   541  INH541      0.0800
     13  S1        15.6650   25.0830   31.6750 S.3   541  INH541     -0.1820
     14  H         16.1590   24.6820   30.4740 H     541  INH541      0.1010
@<TRIPOS>BOND
     1     4     3    2
     2     8     7    2
     3     3    11    1
     4     3     1   am
     5     2     1    1
     6    11    12    1
     7     1     5    1
     8    14    13    1
     9     7     9    1
    10     7     5    1
    11     9    10    1
    12     5     6    1
    13    12    13    1
