@<TRIPOS>MOLECULE
./ligand/1gi9_lig.pdb
 35 37 0 0 0
SMALL
GASTEIGER

@<TRIPOS>ATOM
      1  C1         8.7430    1.8370   24.6990 C.ar  259  INH259      0.0629
      2  C2         9.5440    1.6220   23.5520 C.ar  259  INH259     -0.0450
      3  C3        10.1750    2.6690   22.8830 C.ar  259  INH259     -0.0354
      4  C4         9.9800    3.9360   23.3850 C.ar  259  INH259      0.0665
      5  C5         9.2320    4.1920   24.4800 C.ar  259  INH259      0.0903
      6  C6         8.6020    3.1670   25.1510 C.ar  259  INH259     -0.0195
      7  C7         8.1150    0.7900   25.3680 C.2   259  INH259      0.2662
      8  N1         7.5460    1.0320   26.5170 N.2   259  INH259     -0.2884
      9  N2         8.0760   -0.4230   24.8740 N.pl3 259  INH259     -0.2497
     10  N3        10.4120    5.0800   23.0040 N.ar  259  INH259     -0.3378
     11  N4         9.1810    5.4660   24.7810 N.ar  259  INH259     -0.2276
     12  C8         9.9390    5.9890   23.8170 C.ar  259  INH259      0.1431
     13  C9        10.2220    7.3480   23.6410 C.ar  259  INH259      0.0673
     14  C10        9.8990    8.3340   24.5960 C.ar  259  INH259     -0.0056
     15  C11       10.1950    9.6930   24.3940 C.ar  259  INH259      0.1210
     16  O1         9.9030   10.6870   25.3250 O.3   259  INH259     -0.4951
     17  C12        9.6530   10.3160   26.6740 C.3   259  INH259      0.0788
     18  C13       10.8230   10.0670   23.2080 C.ar  259  INH259     -0.0163
     19  C14       11.1510    9.1200   22.2520 C.ar  259  INH259     -0.0108
     20  C15       10.8540    7.7810   22.4630 C.ar  259  INH259      0.1898
     21  O2        11.1930    6.8740   21.4800 O.3   259  INH259     -0.2872
     22  H1         9.6710    0.6110   23.1820 H     259  INH259      0.0627
     23  H2        10.7910    2.4940   22.0080 H     259  INH259      0.0639
     24  H3         7.9980    3.3810   26.0260 H     259  INH259      0.0648
     25  H4         7.0760    0.2720   27.0290 H     259  INH259      0.3009
     26  H5         7.5670    1.9830   26.9120 H     259  INH259      0.3009
     27  H6         8.5220   -0.6250   23.9680 H     259  INH259      0.2883
     28  H7         7.5990   -1.1750   25.3920 H     259  INH259      0.2883
     29  H8        11.0270    5.2540   22.1960 H     259  INH259      0.1674
     30  H9         9.4070    8.0340   25.5140 H     259  INH259      0.0662
     31  H10        9.4410   11.2170   27.2690 H     259  INH259      0.0660
     32  H11       10.5370    9.8060   27.0840 H     259  INH259      0.0660
     33  H12        8.7870    9.6390   26.7140 H     259  INH259      0.0660
     34  H13       11.0570   11.1110   23.0320 H     259  INH259      0.0655
     35  H14       11.6420    9.4260   21.3350 H     259  INH259      0.0657
@<TRIPOS>BOND
     1     1     2   ar
     2     1     6   ar
     3     1     7    1
     4     2     3   ar
     5     2    22    1
     6     3     4   ar
     7     3    23    1
     8     4     5   ar
     9     4    10   ar
    10     5     6   ar
    11     5    11   ar
    12     6    24    1
    13     7     8    2
    14     7     9    1
    15     8    26    1
    16     8    25    1
    17     9    28    1
    18     9    27    1
    19    10    29    1
    20    10    12   ar
    21    11    12   ar
    22    12    13    1
    23    13    14   ar
    24    13    20   ar
    25    14    15   ar
    26    14    30    1
    27    15    18   ar
    28    15    16    1
    29    16    17    1
    30    17    33    1
    31    17    32    1
    32    17    31    1
    33    18    19   ar
    34    18    34    1
    35    19    20   ar
    36    19    35    1
    37    20    21    1
