@<TRIPOS>MOLECULE
/tmp/ewbell/vina_1gi9_1gi9_lig/vina/vina1.pdbqt
 28 30 0 0 0
SMALL
GASTEIGER

@<TRIPOS>ATOM
      1  C1         8.3080    0.7100   25.0490 C.ar  259  INH259      0.0090
      2  C2         9.1010    0.7160   23.8760 C.ar  259  INH259      0.0170
      3  C3         9.5630    1.8980   23.3010 C.ar  259  INH259      0.0330
      4  C4         9.2060    3.0730   23.9230 C.ar  259  INH259      0.0600
      5  C5         8.4580    3.1200   25.0460 C.ar  259  INH259      0.0610
      6  C6         7.9950    1.9590   25.6260 C.ar  259  INH259      0.0470
      7  N3         9.4650    4.2970   23.6460 N.pl3 259  INH259     -0.3400
      8  N4         8.2380    4.3410   25.4670 N.pl3 259  INH259     -0.3400
      9  H4         7.7100    4.6620   26.2780 H     259  INH259      0.1670
     10  C8         8.8910    5.0520   24.5470 C.3   259  INH259      0.1190
     11  C9         8.9770    6.4480   24.4960 C.ar  259  INH259      0.0440
     12  C10        8.9570    7.2650   25.6450 C.ar  259  INH259      0.0540
     13  C11        9.0450    8.6650   25.5660 C.ar  259  INH259      0.0690
     14  C13        9.1510    9.2540   24.3070 C.ar  259  INH259      0.0390
     15  C14        9.1730    8.4760   23.1610 C.ar  259  INH259      0.0400
     16  C15        9.0850    7.0940   23.2530 C.ar  259  INH259      0.0790
     17  H8        10.0280    4.6290   22.8500 H     259  INH259      0.1670
     18  O2         9.1020    6.3600   22.0850 O.3   259  INH259     -0.3600
     19  H          8.5030    6.5640   21.3940 H     259  INH259      0.2170
     20  O1         9.0450    9.4970   26.6830 O.3   259  INH259     -0.3560
     21  C12        8.1090    9.2540   27.7240 C.3   259  INH259      0.2100
     22  C7         7.8500   -0.4720   25.6240 C.2   259  INH259      0.1020
     23  N2         7.3170   -0.4990   26.8200 N.pl3 259  INH259     -0.3850
     24  H7         6.9910   -1.3910   27.2200 H     259  INH259      0.1570
     25  H6         7.2220    0.3720   27.3620 H     259  INH259      0.1570
     26  N1         7.9630   -1.5830   24.9490 N.2   259  INH259     -0.3850
     27  H5         7.6140   -2.4660   25.3470 H     259  INH259      0.1570
     28  H4         8.4000   -1.5760   24.0160 H     259  INH259      0.1570
@<TRIPOS>BOND
     1    19    18    1
     2    18    16    1
     3    17     7    1
     4    15    16   ar
     5    15    14   ar
     6    16    11   ar
     7     3     2   ar
     8     3     4   ar
     9     7     4    1
    10     7    10    1
    11     2     1   ar
    12     4     5   ar
    13    28    26    1
    14    14    13   ar
    15    11    10    1
    16    11    12   ar
    17    10     8    1
    18    26    27    1
    19    26    22    2
    20     5     8    1
    21     5     6   ar
    22     1    22    1
    23     1     6   ar
    24     8     9    1
    25    13    12   ar
    26    13    20    1
    27    22    23    1
    28    20    21    1
    29    23    24    1
    30    23    25    1
