@<TRIPOS>MOLECULE
/tmp/ewbell/vina_1gi9_1gi9_lig/vina/vina5.pdbqt
 28 30 0 0 0
SMALL
GASTEIGER

@<TRIPOS>ATOM
      1  C1         8.9420    8.9460   24.2870 C.ar  259  INH259      0.0090
      2  C2         8.7260    8.7900   22.8970 C.ar  259  INH259      0.0170
      3  C3         8.5880    7.5350   22.3060 C.ar  259  INH259      0.0330
      4  C4         8.6760    6.4420   23.1370 C.ar  259  INH259      0.0600
      5  C5         8.8720    6.5390   24.4700 C.ar  259  INH259      0.0610
      6  C6         9.0110    7.7720   25.0680 C.ar  259  INH259      0.0470
      7  N3         8.5940    5.1850   22.9050 N.pl3 259  INH259     -0.3400
      8  N4         8.9240    5.3740   25.0680 N.pl3 259  INH259     -0.3400
      9  H4         9.0630    5.1580   26.0550 H     259  INH259      0.1670
     10  C8         8.7470    4.5470   24.0370 C.3   259  INH259      0.1190
     11  C9         8.7280    3.1500   24.0990 C.ar  259  INH259      0.0440
     12  C10        8.2770    2.4320   25.2270 C.ar  259  INH259      0.0540
     13  C11        8.2690    1.0280   25.2620 C.ar  259  INH259      0.0690
     14  C13        8.7270    0.3320   24.1450 C.ar  259  INH259      0.0390
     15  C14        9.1770    1.0100   23.0250 C.ar  259  INH259      0.0400
     16  C15        9.1800    2.3980   23.0010 C.ar  259  INH259      0.0790
     17  H8         8.4340    4.7510   21.9850 H     259  INH259      0.1670
     18  O2         9.6440    3.0310   21.8670 O.3   259  INH259     -0.3600
     19  H         10.5100    3.3890   21.8510 H     259  INH259      0.2170
     20  O1         7.8140    0.2920   26.3540 O.3   259  INH259     -0.3560
     21  C12        6.9810   -0.8370   26.1250 C.3   259  INH259      0.2100
     22  C7         9.0780   10.2000   24.8770 C.2   259  INH259      0.1020
     23  N2         8.1820   11.1420   24.7160 N.2   259  INH259     -0.3850
     24  H7         8.3140   12.0610   25.1620 H     259  INH259      0.1570
     25  H6         7.3440   10.9640   24.1440 H     259  INH259      0.1570
     26  N1        10.1340   10.4380   25.6050 N.pl3 259  INH259     -0.3850
     27  H5        10.0780   10.3740   26.6310 H     259  INH259      0.1570
     28  H4        11.0250   10.6900   25.1520 H     259  INH259      0.1570
@<TRIPOS>BOND
     1    19    18    1
     2    18    16    1
     3    17     7    1
     4     3     2   ar
     5     3     4   ar
     6     2     1   ar
     7     7     4    1
     8     7    10    1
     9    16    15   ar
    10    16    11   ar
    11    15    14   ar
    12     4     5   ar
    13    10    11    1
    14    10     8    1
    15    11    12   ar
    16    25    23    1
    17    14    13   ar
    18     1    22    1
    19     1     6   ar
    20     5     8    1
    21     5     6   ar
    22    23    22    2
    23    23    24    1
    24    22    26    1
    25     8     9    1
    26    28    26    1
    27    12    13   ar
    28    13    20    1
    29    26    27    1
    30    21    20    1
