@<TRIPOS>MOLECULE
/tmp/ewbell/vina_1gi9_1gi9_lig/vina/vina4.pdbqt
 28 30 0 0 0
SMALL
GASTEIGER

@<TRIPOS>ATOM
      1  C1        13.8350    9.8660   21.8620 C.ar  259  INH259      0.0090
      2  C2        12.7370   10.7150   21.5830 C.ar  259  INH259      0.0170
      3  C3        11.4200   10.3170   21.8010 C.ar  259  INH259      0.0330
      4  C4        11.2260    9.0480   22.2980 C.ar  259  INH259      0.0600
      5  C5        12.2400    8.2030   22.5860 C.ar  259  INH259      0.0610
      6  C6        13.5470    8.5830   22.3750 C.ar  259  INH259      0.0470
      7  N3        10.1620    8.4020   22.5970 N.pl3 259  INH259     -0.3400
      8  N4        11.8300    7.0470   23.0460 N.pl3 259  INH259     -0.3400
      9  H4        12.3750    6.2350   23.3370 H     259  INH259      0.1670
     10  C8        10.5080    7.2180   23.0310 C.3   259  INH259      0.1190
     11  C9         9.5530    6.2700   23.4160 C.ar  259  INH259      0.0440
     12  C10        9.7860    5.2990   24.4120 C.ar  259  INH259      0.0540
     13  C11        8.8090    4.3580   24.7790 C.ar  259  INH259      0.0690
     14  C13        7.5760    4.3930   24.1300 C.ar  259  INH259      0.0390
     15  C14        7.3190    5.3350   23.1490 C.ar  259  INH259      0.0400
     16  C15        8.2930    6.2590   22.7940 C.ar  259  INH259      0.0790
     17  H8         9.1980    8.7550   22.5100 H     259  INH259      0.1670
     18  O2         7.9960    7.1740   21.8050 O.3   259  INH259     -0.3600
     19  H          8.6860    7.6280   21.3640 H     259  INH259      0.2170
     20  O1         9.0040    3.3980   25.7700 O.3   259  INH259     -0.3560
     21  C12        8.0860    2.3170   25.8710 C.3   259  INH259      0.2100
     22  C7        15.1510   10.2650   21.6460 C.2   259  INH259      0.1020
     23  N2        16.1090    9.9790   22.4920 N.pl3 259  INH259     -0.3850
     24  H7        17.0730   10.2930   22.3050 H     259  INH259      0.1570
     25  H6        15.9000    9.4380   23.3430 H     259  INH259      0.1570
     26  N1        15.4300   10.9490   20.5700 N.2   259  INH259     -0.3850
     27  H5        16.2910   11.5130   20.5270 H     259  INH259      0.1570
     28  H4        14.7890   10.9250   19.7640 H     259  INH259      0.1570
@<TRIPOS>BOND
     1    28    26    1
     2    27    26    1
     3    26    22    2
     4    19    18    1
     5     2     3   ar
     6     2     1   ar
     7    22     1    1
     8    22    23    1
     9     3     4   ar
    10    18    16    1
    11     1     6   ar
    12     4     5   ar
    13     4     7    1
    14    24    23    1
    15     6     5   ar
    16    23    25    1
    17    17     7    1
    18     5     8    1
    19     7    10    1
    20    16    15   ar
    21    16    11   ar
    22    10     8    1
    23    10    11    1
    24     8     9    1
    25    15    14   ar
    26    11    12   ar
    27    14    13   ar
    28    12    13   ar
    29    13    20    1
    30    20    21    1
