@<TRIPOS>MOLECULE
/tmp/ewbell/vina_1gi9_1gi9_lig/vina/vina3.pdbqt
 28 30 0 0 0
SMALL
GASTEIGER

@<TRIPOS>ATOM
      1  C1         8.0480    7.4220   28.8030 C.ar  259  INH259      0.0090
      2  C2         8.0470    8.1880   27.6130 C.ar  259  INH259      0.0170
      3  C3         8.2080    7.6050   26.3580 C.ar  259  INH259      0.0330
      4  C4         8.3760    6.2390   26.3230 C.ar  259  INH259      0.0600
      5  C5         8.3770    5.4640   27.4290 C.ar  259  INH259      0.0610
      6  C6         8.2200    6.0270   28.6760 C.ar  259  INH259      0.0470
      7  N3         8.5460    5.4250   25.3480 N.pl3 259  INH259     -0.3400
      8  N4         8.5530    4.1930   27.1660 N.pl3 259  INH259     -0.3400
      9  H4         8.5980    3.3990   27.8050 H     259  INH259      0.1670
     10  C8         8.6600    4.2170   25.8370 C.3   259  INH259      0.1190
     11  C9         8.8780    3.1100   25.0100 C.ar  259  INH259      0.0440
     12  C10        8.4160    1.8130   25.3170 C.ar  259  INH259      0.0540
     13  C11        8.6490    0.7180   24.4690 C.ar  259  INH259      0.0690
     14  C13        9.3630    0.9300   23.2920 C.ar  259  INH259      0.0390
     15  C14        9.8300    2.1920   22.9640 C.ar  259  INH259      0.0400
     16  C15        9.5940    3.2660   23.8100 C.ar  259  INH259      0.0790
     17  H8         8.5860    5.6790   24.3510 H     259  INH259      0.1670
     18  O2        10.0840    4.5040   23.4480 O.3   259  INH259     -0.3600
     19  H          9.8110    4.8990   22.6440 H     259  INH259      0.2170
     20  O1         8.1910   -0.5700   24.7370 O.3   259  INH259     -0.3560
     21  C12        7.2890   -0.7700   25.8170 C.3   259  INH259      0.2100
     22  C7         7.8850    8.0060   30.0570 C.2   259  INH259      0.1020
     23  N2         6.7100    8.1040   30.6270 N.2   259  INH259     -0.3850
     24  H7         6.6220    8.5460   31.5540 H     259  INH259      0.1570
     25  H6         5.8740    7.7390   30.1500 H     259  INH259      0.1570
     26  N1         8.9370    8.4710   30.6730 N.pl3 259  INH259     -0.3850
     27  H5         9.0880    8.2560   31.6690 H     259  INH259      0.1570
     28  H4         9.6160    9.0540   30.1630 H     259  INH259      0.1570
@<TRIPOS>BOND
     1    19    18    1
     2    15    14   ar
     3    15    16   ar
     4    14    13   ar
     5    18    16    1
     6    16    11   ar
     7    17     7    1
     8    13    20    1
     9    13    12   ar
    10    20    21    1
    11    11    12   ar
    12    11    10    1
    13     7    10    1
    14     7     4    1
    15    10     8    1
    16     4     3   ar
    17     4     5   ar
    18     3     2   ar
    19     8     5    1
    20     8     9    1
    21     5     6   ar
    22     2     1   ar
    23     6     1   ar
    24     1    22    1
    25    22    23    2
    26    22    26    1
    27    25    23    1
    28    28    26    1
    29    23    24    1
    30    26    27    1
