@<TRIPOS>MOLECULE
/tmp/ewbell/vina_1gi9_1gi9_lig/vina/vina2.pdbqt
 28 30 0 0 0
SMALL
GASTEIGER

@<TRIPOS>ATOM
      1  C1         8.4990    1.0300   24.5710 C.ar  259  INH259      0.0090
      2  C2         9.2180    1.8860   23.7020 C.ar  259  INH259      0.0170
      3  C3         9.4390    3.2280   24.0030 C.ar  259  INH259      0.0330
      4  C4         8.9190    3.6950   25.1890 C.ar  259  INH259      0.0600
      5  C5         8.2330    2.9170   26.0540 C.ar  259  INH259      0.0610
      6  C6         8.0070    1.5880   25.7700 C.ar  259  INH259      0.0470
      7  N3         8.9490    4.8520   25.7370 N.pl3 259  INH259     -0.3400
      8  N4         7.8290    3.5650   27.1190 N.pl3 259  INH259     -0.3400
      9  H4         7.2970    3.2260   27.9200 H     259  INH259      0.1670
     10  C8         8.3010    4.7870   26.8720 C.3   259  INH259      0.1190
     11  C9         8.1440    5.9090   27.6920 C.ar  259  INH259      0.0440
     12  C10        8.0440    5.8320   29.0970 C.ar  259  INH259      0.0540
     13  C11        7.8870    6.9760   29.8970 C.ar  259  INH259      0.0690
     14  C13        7.8250    8.2200   29.2720 C.ar  259  INH259      0.0390
     15  C14        7.9190    8.3270   27.8950 C.ar  259  INH259      0.0400
     16  C15        8.0750    7.1890   27.1150 C.ar  259  INH259      0.0790
     17  H8         9.4050    5.6910   25.3500 H     259  INH259      0.1670
     18  O2         8.1570    7.3420   25.7460 O.3   259  INH259     -0.3600
     19  H          8.1820    6.5870   25.1910 H     259  INH259      0.2170
     20  O1         7.8020    6.9330   31.2870 O.3   259  INH259     -0.3560
     21  C12        8.8400    6.3000   32.0210 C.3   259  INH259      0.2100
     22  C7         8.2810   -0.3120   24.2710 C.2   259  INH259      0.1020
     23  N2         8.0980   -1.2100   25.2070 N.pl3 259  INH259     -0.3850
     24  H7         7.9430   -2.1970   24.9520 H     259  INH259      0.1570
     25  H6         8.1080   -0.9310   26.1980 H     259  INH259      0.1570
     26  N1         8.2640   -0.6800   23.0190 N.2   259  INH259     -0.3850
     27  H5         8.8480   -1.4680   22.7050 H     259  INH259      0.1570
     28  H4         7.6660   -0.1820   22.3440 H     259  INH259      0.1570
@<TRIPOS>BOND
     1    28    26    1
     2    27    26    1
     3    26    22    2
     4     2     3   ar
     5     2     1   ar
     6     3     4   ar
     7    22     1    1
     8    22    23    1
     9     1     6   ar
    10    24    23    1
    11     4     7    1
    12     4     5   ar
    13    19    18    1
    14    23    25    1
    15    17     7    1
    16     7    10    1
    17    18    16    1
    18     6     5   ar
    19     5     8    1
    20    10     8    1
    21    10    11    1
    22    16    11   ar
    23    16    15   ar
    24     8     9    1
    25    11    12   ar
    26    15    14   ar
    27    12    13   ar
    28    14    13   ar
    29    13    20    1
    30    20    21    1
