@<TRIPOS>MOLECULE
./ligand/2boh_lig.pdb
 61 65 0 0 0
SMALL
GASTEIGER

@<TRIPOS>ATOM
      1  C1         2.2850    8.5850   25.9480 C.ar  293  INH293     -0.0598
      2  C2         3.4480    8.9570   25.1150 C.ar  293  INH293     -0.0376
      3  C3         4.0950    8.0100   24.1680 C.ar  293  INH293      0.0500
      4  C4         3.5260    6.6310   24.0990 C.ar  293  INH293      0.0006
      5  C5         2.3800    6.2500   24.9270 C.ar  293  INH293     -0.0526
      6  C6         1.7630    7.2180   25.8440 C.ar  293  INH293     -0.0611
      7  N1         5.1740    8.0190   23.2350 N.ar  293  INH293     -0.3302
      8  C7         5.2550    6.7950   22.7150 C.ar  293  INH293      0.1057
      9  C8         4.2750    5.9110   23.1780 C.ar  293  INH293     -0.0239
     10  C9         6.2700    6.3010   21.9400 C.2   293  INH293      0.2608
     11  N2         5.8420    5.3110   21.1840 N.am  293  INH293     -0.3069
     12  C10        6.8610    4.4620   20.6990 C.3   293  INH293      0.0331
     13  C11        6.2680    3.0750   20.4830 C.3   293  INH293      0.0061
     14  C12        7.2670    2.0940   19.8740 C.3   293  INH293     -0.0300
     15  N3         7.7790    2.6860   18.5870 N.4   293  INH293      0.2371
     16  C13        8.4250    4.0240   18.7440 C.3   293  INH293     -0.0300
     17  C14        7.4000    4.9710   19.3650 C.3   293  INH293      0.0061
     18  C15        8.6540    1.7300   17.8630 C.3   293  INH293     -0.0266
     19  C16        9.3020    2.3550   16.6420 C.3   293  INH293     -0.0218
     20  C17        7.8180    0.5530   17.4320 C.3   293  INH293     -0.0218
     21  C18        6.1360    9.0320   22.7490 C.3   293  INH293      0.0693
     22  C19        7.4030    9.1580   23.5570 C.ar  293  INH293      0.1038
     23  N4         8.4150    9.9160   23.1230 N.ar  293  INH293     -0.0808
     24  O1         9.4730    9.7320   24.0210 O.2   293  INH293     -0.3538
     25  C20        9.0420    8.8750   24.9910 C.ar  293  INH293      0.1741
     26  C21        7.6540    8.5190   24.8410 C.ar  293  INH293      0.0106
     27  C22        9.9480    8.2920   25.9640 C.ar  293  INH293      0.0585
     28  S1        11.5760    8.4740   25.4560 S.2   293  INH293     -0.0736
     29  C23       12.0920    7.6350   26.9240 C.ar  293  INH293      0.0787
     30  C24       11.0840    7.2210   27.7070 C.ar  293  INH293     -0.0355
     31  C25        9.8020    7.5960   27.1140 C.ar  293  INH293     -0.0424
     32 Cl1        13.7560    7.4090   27.1440 Cl    293  INH293     -0.0758
     33  O2         7.4270    6.7250   21.9630 O.2   293  INH293     -0.2686
     34  H1         1.8290    9.3040   26.6190 H     293  INH293      0.0618
     35  H2         3.8460    9.9620   25.1980 H     293  INH293      0.0638
     36  H3         1.9830    5.2430   24.8630 H     293  INH293      0.0624
     37  H4         0.9150    6.9190   26.4490 H     293  INH293      0.0618
     38  H5         4.1300    4.8740   22.8780 H     293  INH293      0.0646
     39  H6         4.8750    5.1720   20.9710 H     293  INH293      0.1493
     40  H7         7.6800    4.4120   21.4320 H     293  INH293      0.0502
     41  H8         5.4050    3.1630   19.8070 H     293  INH293      0.0335
     42  H9         5.9350    2.6800   21.4540 H     293  INH293      0.0335
     43  H10        6.7700    1.1340   19.6710 H     293  INH293      0.0815
     44  H11        8.1040    1.9340   20.5700 H     293  INH293      0.0815
     45  H12        6.9700    2.8340   18.0040 H     293  INH293      0.2036
     46  H13        8.7380    4.4050   17.7610 H     293  INH293      0.0815
     47  H14        9.3030    3.9400   19.4020 H     293  INH293      0.0815
     48  H15        7.8770    5.9490   19.5280 H     293  INH293      0.0335
     49  H16        6.5580    5.0860   18.6660 H     293  INH293      0.0335
     50  H17        9.4460    1.3870   18.5450 H     293  INH293      0.0846
     51  H18        9.9380    1.6090   16.1420 H     293  INH293      0.0284
     52  H19        9.9170    3.2130   16.9520 H     293  INH293      0.0284
     53  H20        8.5210    2.6960   15.9460 H     293  INH293      0.0284
     54  H21        8.4500   -0.1680   16.8930 H     293  INH293      0.0284
     55  H22        7.0100    0.9000   16.7700 H     293  INH293      0.0284
     56  H23        7.3830    0.0680   18.3180 H     293  INH293      0.0284
     57  H24        5.6310   10.0090   22.7540 H     293  INH293      0.0558
     58  H25        6.4150    8.7680   21.7180 H     293  INH293      0.0558
     59  H26        6.9940    7.9460   25.4900 H     293  INH293      0.0675
     60  H27       11.2040    6.6840   28.6470 H     293  INH293      0.0638
     61  H28        8.8370    7.3430   27.5500 H     293  INH293      0.0630
@<TRIPOS>BOND
     1     1    34    1
     2     1     6   ar
     3     1     2   ar
     4     2    35    1
     5     2     3   ar
     6     3     7   ar
     7     3     4   ar
     8     4     9   ar
     9     4     5   ar
    10     5    36    1
    11     5     6   ar
    12     6    37    1
    13     7     8   ar
    14     7    21    1
    15     8     9   ar
    16     8    10    1
    17     9    38    1
    18    10    33    2
    19    10    11   am
    20    11    39    1
    21    11    12    1
    22    12    40    1
    23    12    17    1
    24    12    13    1
    25    13    42    1
    26    13    41    1
    27    13    14    1
    28    14    44    1
    29    14    43    1
    30    14    15    1
    31    15    45    1
    32    15    18    1
    33    15    16    1
    34    16    47    1
    35    16    46    1
    36    16    17    1
    37    17    49    1
    38    17    48    1
    39    18    50    1
    40    18    20    1
    41    18    19    1
    42    19    53    1
    43    19    52    1
    44    19    51    1
    45    20    56    1
    46    20    55    1
    47    20    54    1
    48    21    58    1
    49    21    57    1
    50    21    22    1
    51    22    26   ar
    52    22    23   ar
    53    23    24   ar
    54    24    25   ar
    55    25    27    1
    56    25    26   ar
    57    26    59    1
    58    27    31   ar
    59    27    28   ar
    60    28    29   ar
    61    29    32    1
    62    29    30   ar
    63    30    60    1
    64    30    31   ar
    65    31    61    1
