@<TRIPOS>MOLECULE
/tmp/ewbell/vina_2boh_2boh_lig/vina/vina2.pdbqt
 36 40 0 0 0
SMALL
GASTEIGER

@<TRIPOS>ATOM
      1  C1        10.4730    9.1900   24.6490 C.ar  293  INH293      0.0020
      2  C2         9.4730    9.2190   23.5610 C.ar  293  INH293      0.0300
      3  C3         8.1260    8.6030   23.6900 C.ar  293  INH293      0.0450
      4  C4         7.8160    7.9220   24.9830 C.ar  293  INH293     -0.0070
      5  C5         8.8030    7.8800   26.0630 C.ar  293  INH293      0.0140
      6  C6        10.1210    8.5090   25.9000 C.ar  293  INH293      0.0010
      7  N1         6.9500    8.4540   22.8960 N.ar  293  INH293     -0.3360
      8  C7         6.0790    7.7440   23.6110 C.ar  293  INH293      0.1040
      9  C8         6.5300    7.4070   24.8910 C.ar  293  INH293      0.0490
     10  C9         4.9090    7.1920   23.1620 C.2   293  INH293      0.2680
     11  O2         3.8450    7.8060   23.0670 O.2   293  INH293     -0.2660
     12  N2         5.0830    5.9270   22.8370 N.am  293  INH293     -0.3510
     13  H6         5.9640    5.4620   22.9280 H     293  INH293      0.1630
     14  C10        3.9250    5.2830   22.3500 C.3   293  INH293      0.0870
     15  C14        3.5690    4.0810   23.2190 C.3   293  INH293      0.0530
     16  C13        2.3890    3.2830   22.6660 C.3   293  INH293      0.2370
     17  N3         2.7330    2.8570   21.2760 N.4   293  INH293     -0.0670
     18  C12        3.0480    3.9970   20.3420 C.3   293  INH293      0.2370
     19  H12        3.5790    2.3150   21.3520 H     293  INH293      0.2800
     20  C11        4.2100    4.7900   20.9360 C.3   293  INH293      0.0530
     21  C15        1.7020    1.9570   20.7000 C.3   293  INH293      0.1800
     22  C17        2.0820    1.6510   19.2740 C.3   293  INH293      0.0390
     23  C16        1.5770    0.6580   21.4720 C.3   293  INH293      0.0390
     24  C18        6.5240    8.9050   21.5530 C.3   293  INH293      0.1880
     25  C19        6.7840    7.9300   20.4330 C.2   293  INH293      0.0530
     26  C21        7.6340    6.7510   20.5180 C.2   293  INH293      0.0690
     27  C20        7.3350    6.1750   19.2320 C.3   293  INH293      0.1170
     28  O1         6.5610    6.9890   18.4590 O.3   293  INH293     -0.2360
     29  N4         6.2300    8.1100   19.2290 N.4   293  INH293     -0.2630
     30  H4         5.6730    8.9100   18.9300 H     293  INH293      0.1940
     31  C22        7.6760    4.8240   18.8270 C.ar  293  INH293      0.0420
     32  C25        8.7340    4.0030   19.0200 C.ar  293  INH293      0.0240
     33  C24        8.5500    2.6970   18.3900 C.ar  293  INH293      0.0330
     34  C23        7.3430    2.6330   17.8070 C.ar  293  INH293      0.0750
     35  S1         6.3710    4.0990   17.9830 S.2   293  INH293     -0.0750
     36 Cl1         6.6380    1.3280   16.9900 Cl    293  INH293     -0.0760
@<TRIPOS>BOND
     1    36    34    1
     2    34    35   ar
     3    34    33   ar
     4    35    31   ar
     5    33    32   ar
     6    28    29    1
     7    28    27    1
     8    31    32   ar
     9    31    27    1
    10    30    29    1
    11    29    25    1
    12    27    26    1
    13    22    21    1
    14    18    20    1
    15    18    17    1
    16    25    26    2
    17    25    24    1
    18    21    17    1
    19    21    23    1
    20    20    14    1
    21    17    19    1
    22    17    16    1
    23    24     7    1
    24    14    12    1
    25    14    15    1
    26    16    15    1
    27    12    13    1
    28    12    10   am
    29     7     8   ar
    30     7     3   ar
    31    11    10    2
    32    10     8    1
    33     2     3   ar
    34     2     1   ar
    35     8     9   ar
    36     3     4   ar
    37     1     6   ar
    38     9     4   ar
    39     4     5   ar
    40     6     5   ar
