@<TRIPOS>MOLECULE
/tmp/ewbell/vina_2boh_2boh_lig/vina/vina1.pdbqt
 36 40 0 0 0
SMALL
GASTEIGER

@<TRIPOS>ATOM
      1  C1         8.5710    0.5140   16.7010 C.ar  293  INH293      0.0020
      2  C2         7.5480    1.5740   16.5830 C.ar  293  INH293      0.0300
      3  C3         7.5480    2.7900   17.4400 C.ar  293  INH293      0.0450
      4  C4         8.6330    2.8960   18.4610 C.ar  293  INH293     -0.0070
      5  C5         9.6450    1.8470   18.5910 C.ar  293  INH293      0.0140
      6  C6         9.6170    0.6650   17.7190 C.ar  293  INH293      0.0010
      7  N1         6.7680    3.9740   17.5950 N.ar  293  INH293     -0.3360
      8  C7         7.3000    4.6670   18.6010 C.ar  293  INH293      0.1040
      9  C8         8.4430    4.0830   19.1560 C.ar  293  INH293      0.0490
     10  C9         6.7520    5.7560   19.2240 C.2   293  INH293      0.2680
     11  O2         5.6860    5.7360   19.8430 O.2   293  INH293     -0.2660
     12  N2         7.5230    6.8150   19.0800 N.am  293  INH293     -0.3510
     13  H6         8.3820    6.7920   18.5700 H     293  INH293      0.1630
     14  C10        7.0350    7.9830   19.7060 C.3   293  INH293      0.0870
     15  C14        6.4280    8.9340   18.6790 C.3   293  INH293      0.0530
     16  C13        5.9910   10.2630   19.2930 C.3   293  INH293      0.2370
     17  N3         7.1800   10.8770   19.9570 N.4   293  INH293     -0.0670
     18  C12        7.8040   10.0150   21.0230 C.3   293  INH293      0.2370
     19  H12        7.8770   10.9820   19.2370 H     293  INH293      0.2800
     20  C11        8.2040    8.6860   20.3850 C.3   293  INH293      0.0530
     21  C15        6.8880   12.2400   20.4680 C.3   293  INH293      0.1800
     22  C17        8.1870   12.9980   20.5680 C.3   293  INH293      0.0390
     23  C16        5.9370   13.0010   19.5640 C.3   293  INH293      0.0390
     24  C18        5.5930    4.5570   16.9110 C.3   293  INH293      0.1880
     25  C19        5.8760    5.2020   15.5780 C.2   293  INH293      0.0530
     26  C21        5.7400    6.6200   15.2790 C.2   293  INH293      0.0690
     27  C20        6.3050    6.6160   13.9540 C.3   293  INH293      0.1170
     28  O1         6.5700    5.3580   13.4990 O.3   293  INH293     -0.2360
     29  N4         6.2790    4.4660   14.5370 N.4   293  INH293     -0.2630
     30  H4         6.3570    3.4500   14.5050 H     293  INH293      0.1940
     31  C22        6.7000    7.8020   13.2170 C.ar  293  INH293      0.0420
     32  C25        7.8700    8.2990   12.7540 C.ar  293  INH293      0.0240
     33  C24        7.6970    9.5600   12.0350 C.ar  293  INH293      0.0330
     34  C23        6.3960    9.8850   11.9840 C.ar  293  INH293      0.0750
     35  S1         5.3230    8.7200   12.7680 S.2   293  INH293     -0.0750
     36 Cl1         5.6740   11.2190   11.2300 Cl    293  INH293     -0.0760
@<TRIPOS>BOND
     1    36    34    1
     2    34    33   ar
     3    34    35   ar
     4    33    32   ar
     5    32    31   ar
     6    35    31   ar
     7    31    27    1
     8    28    27    1
     9    28    29    1
    10    27    26    1
    11    30    29    1
    12    29    25    1
    13    26    25    2
    14    25    24    1
    15     2     1   ar
    16     2     3   ar
    17     1     6   ar
    18    24     7    1
    19     3     7   ar
    20     3     4   ar
    21     7     8   ar
    22     6     5   ar
    23     4     5   ar
    24     4     9   ar
    25    13    12    1
    26     8     9   ar
    27     8    10    1
    28    15    16    1
    29    15    14    1
    30    12    10   am
    31    12    14    1
    32    10    11    2
    33    19    17    1
    34    16    17    1
    35    23    21    1
    36    14    20    1
    37    17    21    1
    38    17    18    1
    39    20    18    1
    40    21    22    1
