@<TRIPOS>MOLECULE
/tmp/ewbell/vina_2boh_2boh_lig/vina/vina5.pdbqt
 36 40 0 0 0
SMALL
GASTEIGER

@<TRIPOS>ATOM
      1  C1         9.0360    1.3740   19.1200 C.ar  293  INH293      0.0020
      2  C2         7.8990    2.3160   19.1930 C.ar  293  INH293      0.0300
      3  C3         7.2700    2.9110   17.9840 C.ar  293  INH293      0.0450
      4  C4         7.8510    2.5280   16.6630 C.ar  293  INH293     -0.0070
      5  C5         8.9830    1.6030   16.5810 C.ar  293  INH293      0.0140
      6  C6         9.5720    1.0290   17.7990 C.ar  293  INH293      0.0010
      7  N1         6.1980    3.8020   17.6790 N.ar  293  INH293     -0.3360
      8  C7         6.1780    3.9550   16.3560 C.ar  293  INH293      0.1040
      9  C8         7.1370    3.1970   15.6770 C.ar  293  INH293      0.0490
     10  C9         5.4530    4.8790   15.6510 C.2   293  INH293      0.2680
     11  O2         4.3120    4.6860   15.2270 O.2   293  INH293     -0.2660
     12  N2         6.1370    5.9950   15.5010 N.am  293  INH293     -0.3510
     13  H6         7.0620    6.1140   15.8600 H     293  INH293      0.1630
     14  C10        5.4550    7.0080   14.7930 C.3   293  INH293      0.0870
     15  C14        6.3150    7.5440   13.6520 C.3   293  INH293      0.0530
     16  C13        5.6650    8.7220   12.9280 C.3   293  INH293      0.2370
     17  N3         5.3900    9.7870   13.9380 N.4   293  INH293     -0.0670
     18  C12        4.5010    9.3470   15.0720 C.3   293  INH293      0.2370
     19  H12        6.2800   10.0160   14.3510 H     293  INH293      0.2800
     20  C11        5.1630    8.1530   15.7560 C.3   293  INH293      0.0530
     21  C15        4.8820   11.0320   13.3070 C.3   293  INH293      0.1800
     22  C17        5.5990   11.2260   11.9950 C.3   293  INH293      0.0390
     23  C16        3.3870   10.9790   13.0530 C.3   293  INH293      0.0390
     24  C18        5.1730    4.5220   18.4660 C.3   293  INH293      0.1880
     25  C19        5.7040    5.3660   19.5970 C.2   293  INH293      0.0530
     26  C21        6.4920    6.5810   19.4490 C.2   293  INH293      0.0690
     27  C20        6.5280    6.9840   20.8310 C.3   293  INH293      0.1170
     28  O1         5.9880    6.0510   21.6660 O.3   293  INH293     -0.2360
     29  N4         5.4800    5.0190   20.8690 N.4   293  INH293     -0.2630
     30  H4         5.0270    4.1650   21.1960 H     293  INH293      0.1940
     31  C22        6.9500    8.2900   21.3040 C.ar  293  INH293      0.0420
     32  C25        7.2450    8.8240   22.5110 C.ar  293  INH293      0.0240
     33  C24        7.6470   10.2260   22.4200 C.ar  293  INH293      0.0330
     34  C23        7.6600   10.6180   21.1360 C.ar  293  INH293      0.0750
     35  S1         7.2080    9.3550   19.9850 S.2   293  INH293     -0.0750
     36 Cl1         8.0960   12.1260   20.5010 Cl    293  INH293     -0.0760
@<TRIPOS>BOND
     1    22    21    1
     2    16    15    1
     3    16    17    1
     4    23    21    1
     5    21    17    1
     6    15    14    1
     7    17    19    1
     8    17    18    1
     9    14    12    1
    10    14    20    1
    11    18    20    1
    12    11    10    2
    13    12    10   am
    14    12    13    1
    15    10     8    1
    16     9     8   ar
    17     9     4   ar
    18     8     7   ar
    19     5     4   ar
    20     5     6   ar
    21     4     3   ar
    22     7     3   ar
    23     7    24    1
    24     6     1   ar
    25     3     2   ar
    26    24    25    1
    27     1     2   ar
    28    26    25    2
    29    26    27    1
    30    25    29    1
    31    35    34   ar
    32    35    31   ar
    33    36    34    1
    34    27    31    1
    35    27    28    1
    36    29    30    1
    37    29    28    1
    38    34    33   ar
    39    31    32   ar
    40    33    32   ar
