@<TRIPOS>MOLECULE
/tmp/ewbell/vina_2boh_2boh_lig/vina/vina4.pdbqt
 36 40 0 0 0
SMALL
GASTEIGER

@<TRIPOS>ATOM
      1  C1         9.0730    2.1730   16.4630 C.ar  293  INH293      0.0020
      2  C2         7.8930    2.9810   16.8380 C.ar  293  INH293      0.0300
      3  C3         7.3090    2.9660   18.2060 C.ar  293  INH293      0.0450
      4  C4         7.9610    2.0700   19.2070 C.ar  293  INH293     -0.0070
      5  C5         9.1240    1.2590   18.8440 C.ar  293  INH293      0.0140
      6  C6         9.6770    1.3090   17.4830 C.ar  293  INH293      0.0010
      7  N1         6.2360    3.5940   18.9050 N.ar  293  INH293     -0.3360
      8  C7         6.2320    3.1020   20.1430 C.ar  293  INH293      0.1040
      9  C8         7.2610    2.1920   20.4000 C.ar  293  INH293      0.0490
     10  C9         5.2520    3.2680   21.0850 C.2   293  INH293      0.2680
     11  O2         5.2270    4.1900   21.9030 O.2   293  INH293     -0.2660
     12  N2         4.3430    2.3200   20.9870 N.am  293  INH293     -0.3510
     13  H6         4.3980    1.5870   20.3090 H     293  INH293      0.1630
     14  C10        3.2860    2.4230   21.9170 C.3   293  INH293      0.0870
     15  C14        3.4230    1.3690   23.0120 C.3   293  INH293      0.0530
     16  C13        2.2410    1.3670   23.9790 C.3   293  INH293      0.2370
     17  N3         0.9950    1.1540   23.1820 N.4   293  INH293     -0.0670
     18  C12        0.7630    2.1880   22.1120 C.3   293  INH293      0.2370
     19  H12        1.1190    0.2760   22.7020 H     293  INH293      0.2800
     20  C11        1.9740    2.1860   21.1800 C.3   293  INH293      0.0530
     21  C15       -0.1990    0.9990   24.0500 C.3   293  INH293      0.1800
     22  C17       -1.4290    1.0530   23.1800 C.3   293  INH293      0.0390
     23  C16       -0.1880   -0.3100   24.8160 C.3   293  INH293      0.0390
     24  C18        5.2160    4.6120   18.5710 C.3   293  INH293      0.1880
     25  C19        5.6680    6.0440   18.7060 C.2   293  INH293      0.0530
     26  C21        5.5920    6.8440   19.9210 C.2   293  INH293      0.0690
     27  C20        6.3110    8.0040   19.4610 C.3   293  INH293      0.1170
     28  O1         6.6070    7.9460   18.1310 O.3   293  INH293     -0.2360
     29  N4         6.1780    6.7000   17.6590 N.4   293  INH293     -0.2630
     30  H4         6.2420    6.3590   16.7000 H     293  INH293      0.1940
     31  C22        6.8110    9.0640   20.3170 C.ar  293  INH293      0.0420
     32  C25        7.1300    9.1700   21.6270 C.ar  293  INH293      0.0240
     33  C24        7.6220   10.5000   21.9770 C.ar  293  INH293      0.0330
     34  C23        7.6700   11.2760   20.8830 C.ar  293  INH293      0.0750
     35  S1         7.1480   10.4720   19.3980 S.2   293  INH293     -0.0750
     36 Cl1         8.2070   12.8770   20.7520 Cl    293  INH293     -0.0760
@<TRIPOS>BOND
     1     1     2   ar
     2     1     6   ar
     3    30    29    1
     4     2     3   ar
     5     6     5   ar
     6    29    28    1
     7    29    25    1
     8    28    27    1
     9     3     7   ar
    10     3     4   ar
    11    24    25    1
    12    24     7    1
    13    25    26    2
    14     5     4   ar
    15     7     8   ar
    16     4     9   ar
    17    35    31   ar
    18    35    34   ar
    19    27    26    1
    20    27    31    1
    21     8     9   ar
    22     8    10    1
    23    13    12    1
    24    31    32   ar
    25    36    34    1
    26    34    33   ar
    27    12    10   am
    28    12    14    1
    29    10    11    2
    30    20    14    1
    31    20    18    1
    32    32    33   ar
    33    14    15    1
    34    18    17    1
    35    19    17    1
    36    15    16    1
    37    22    21    1
    38    17    16    1
    39    17    21    1
    40    21    23    1
