@<TRIPOS>MOLECULE
/tmp/ewbell/vina_2boh_2boh_lig/vina/vina3.pdbqt
 36 40 0 0 0
SMALL
GASTEIGER

@<TRIPOS>ATOM
      1  C1         8.7570    1.7080   16.2390 C.ar  293  INH293      0.0020
      2  C2         7.6480    2.6840   16.2020 C.ar  293  INH293      0.0300
      3  C3         7.4530    3.7210   17.2500 C.ar  293  INH293      0.0450
      4  C4         8.4310    3.7310   18.3790 C.ar  293  INH293     -0.0070
      5  C5         9.5280    2.7620   18.4290 C.ar  293  INH293      0.0140
      6  C6         9.6920    1.7590   17.3680 C.ar  293  INH293      0.0010
      7  N1         6.5490    4.7890   17.5270 N.ar  293  INH293     -0.3360
      8  C7         6.9220    5.3300   18.6850 C.ar  293  INH293      0.1040
      9  C8         8.0650    4.7520   19.2450 C.ar  293  INH293      0.0490
     10  C9         6.2170    6.2400   19.4280 C.2   293  INH293      0.2680
     11  O2         6.0870    7.4280   19.1250 O.2   293  INH293     -0.2660
     12  N2         5.6920    5.6690   20.4930 N.am  293  INH293     -0.3510
     13  H6         5.8200    4.7010   20.7050 H     293  INH293      0.1630
     14  C10        4.9350    6.5370   21.3090 C.3   293  INH293      0.0870
     15  C14        5.5720    6.6750   22.6890 C.3   293  INH293      0.0530
     16  C13        4.7280    7.5140   23.6460 C.3   293  INH293      0.2370
     17  N3         3.3760    6.8850   23.7390 N.4   293  INH293     -0.0670
     18  C12        2.6610    6.7620   22.4190 C.3   293  INH293      0.2370
     19  H12        3.5280    5.9440   24.0640 H     293  INH293      0.2800
     20  C11        3.5420    5.9450   21.4770 C.3   293  INH293      0.0530
     21  C15        2.5220    7.5520   24.7550 C.3   293  INH293      0.1800
     22  C17        1.6420    6.5090   25.3940 C.3   293  INH293      0.0390
     23  C16        3.3400    8.2400   25.8310 C.3   293  INH293      0.0390
     24  C18        5.3840    5.3860   16.8380 C.3   293  INH293      0.1880
     25  C19        5.7160    6.3870   15.7600 C.2   293  INH293      0.0530
     26  C21        6.0890    6.0640   14.3910 C.2   293  INH293      0.0690
     27  C20        6.1020    7.3980   13.8490 C.3   293  INH293      0.1170
     28  O1         5.9290    8.3550   14.8050 O.3   293  INH293     -0.2360
     29  N4         5.6990    7.6990   16.0200 N.4   293  INH293     -0.2630
     30  H4         5.5490    8.1370   16.9280 H     293  INH293      0.1940
     31  C22        6.1440    7.7200   12.4340 C.ar  293  INH293      0.0420
     32  C25        6.7160    8.6920   11.6880 C.ar  293  INH293      0.0240
     33  C24        6.4510    8.5300   10.2600 C.ar  293  INH293      0.0330
     34  C23        5.7290    7.4180   10.0490 C.ar  293  INH293      0.0750
     35  S1         5.3410    6.5130   11.5180 S.2   293  INH293     -0.0750
     36 Cl1         5.2050    6.7680    8.5760 Cl    293  INH293     -0.0760
@<TRIPOS>BOND
     1    36    34    1
     2    34    33   ar
     3    34    35   ar
     4    33    32   ar
     5    35    31   ar
     6    32    31   ar
     7    31    27    1
     8    27    26    1
     9    27    28    1
    10    26    25    2
    11    28    29    1
    12    25    29    1
    13    25    24    1
    14    29    30    1
    15     2     1   ar
    16     2     3   ar
    17     1     6   ar
    18    24     7    1
    19     3     7   ar
    20     3     4   ar
    21     6     5   ar
    22     7     8   ar
    23     4     5   ar
    24     4     9   ar
    25     8     9   ar
    26     8    10    1
    27    11    10    2
    28    10    12   am
    29    12    13    1
    30    12    14    1
    31    14    20    1
    32    14    15    1
    33    20    18    1
    34    18    17    1
    35    15    16    1
    36    16    17    1
    37    17    19    1
    38    17    21    1
    39    21    22    1
    40    21    23    1
