@<TRIPOS>MOLECULE
./ligand/2nsl_lig.pdb
 33 34 0 0 0
SMALL
GASTEIGER

@<TRIPOS>ATOM
      1  P1        15.5900  -11.6380   -9.4290 P.3   1313  INH1313     0.5320
      2  O1        16.4120  -12.9650   -9.0360 O.3   1313  INH1313    -0.1145
      3  O2        14.5510  -11.3900   -8.2250 O.3   1313  INH1313    -0.1145
      4  O3        16.4640  -10.4730   -9.6880 O.2   1313  INH1313    -0.2224
      5  N1        14.6290  -13.9900  -15.0020 N.ar  1313  INH1313    -0.2891
      6  C1        14.5190  -14.3090  -16.2870 C.ar  1313  INH1313     0.1327
      7  C2        15.5330  -15.2080  -16.5790 C.ar  1313  INH1313     0.1911
      8  N2        16.2440  -15.3900  -15.4710 N.ar  1313  INH1313    -0.2271
      9  C3        15.6860  -14.6420  -14.5190 C.ar  1313  INH1313     0.1003
     10  N3        13.6380  -13.8050  -17.1480 N.pl3 1313  INH1313    -0.3425
     11  C4        15.7230  -15.9450  -17.9060 C.2   1313  INH1313     0.4078
     12  O4        14.9970  -15.6090  -18.8670 O.co2 1313  INH1313    -0.2387
     13  O5        16.5850  -16.8500  -17.9530 O.co2 1313  INH1313    -0.2387
     14  O6        14.6990  -12.0440  -10.7070 O.3   1313  INH1313    -0.2809
     15  C5        13.1420  -14.0120  -13.0640 C.3   1313  INH1313     0.1285
     16  O7        12.1960  -14.9550  -13.5740 O.3   1313  INH1313    -0.3847
     17  C6        12.4230  -12.9180  -12.2750 C.3   1313  INH1313     0.1135
     18  O8        11.0870  -12.7740  -12.7640 O.3   1313  INH1313    -0.3864
     19  C7        13.8620  -11.0750  -11.3420 C.3   1313  INH1313     0.0880
     20  C8        13.2410  -11.6660  -12.6090 C.3   1313  INH1313     0.1134
     21  O9        14.2830  -12.0960  -13.5020 O.3   1313  INH1313    -0.3456
     22  C9        13.6720  -13.1730  -14.2240 C.3   1313  INH1313     0.1664
     23  H1        16.0430  -14.5730  -13.4920 H     1313  INH1313     0.1030
     24  H2        13.6370  -14.1220  -18.1280 H     1313  INH1313     0.1437
     25  H3        12.9580  -13.0980  -16.8340 H     1313  INH1313     0.1437
     26  H4        13.9340  -14.5120  -12.4870 H     1313  INH1313     0.0665
     27  H5        11.5830  -14.5090  -14.1470 H     1313  INH1313     0.2101
     28  H6        12.4170  -13.1270  -11.1950 H     1313  INH1313     0.0647
     29  H7        10.6230  -13.5960  -12.6600 H     1313  INH1313     0.2100
     30  H8        14.4640  -10.1940  -11.6090 H     1313  INH1313     0.0592
     31  H9        13.0610  -10.7760  -10.6500 H     1313  INH1313     0.0592
     32  H10       12.6040  -10.9120  -13.0950 H     1313  INH1313     0.0647
     33  H11       12.8700  -12.8100  -14.8830 H     1313  INH1313     0.0866
@<TRIPOS>BOND
     1    12    11   ar
     2    24    10    1
     3    13    11   ar
     4    11     7    1
     5    10    25    1
     6    10     6    1
     7     7     6   ar
     8     7     8   ar
     9     6     5   ar
    10     8     9   ar
    11     5     9   ar
    12     5    22    1
    13    33    22    1
    14     9    23    1
    15    22    21    1
    16    22    15    1
    17    27    16    1
    18    16    15    1
    19    21    20    1
    20    32    20    1
    21    15    26    1
    22    15    17    1
    23    18    29    1
    24    18    17    1
    25    20    17    1
    26    20    19    1
    27    17    28    1
    28    30    19    1
    29    19    14    1
    30    19    31    1
    31    14     1    1
    32     4     1    2
    33     1     2    1
    34     1     3    1
