@<TRIPOS>MOLECULE
/tmp/ewbell/vina_2nsl_2nsl_lig/vina/vina2.pdbqt
 30 31 0 0 0
SMALL
GASTEIGER

@<TRIPOS>ATOM
      1  C5        14.8010  -12.0250  -12.1720 C.3   1313  INH1313     0.1980
      2  C6        13.6630  -11.2180  -11.5470 C.3   1313  INH1313     0.1820
      3  C8        12.4940  -11.4850  -12.5020 C.3   1313  INH1313     0.1800
      4  O9        13.0030  -12.3640  -13.5200 O.3   1313  INH1313    -0.3530
      5  C9        13.9860  -13.1400  -12.8230 C.3   1313  INH1313     0.2620
      6  N1        14.8740  -13.9190  -13.7130 N.pl3 1313  INH1313    -0.2970
      7  C1        14.5500  -14.4090  -14.9050 C.2   1313  INH1313     0.1380
      8  N3        13.4440  -14.1350  -15.5920 N.pl3 1313  INH1313    -0.3830
      9  C2        15.6060  -15.2010  -15.3280 C.2   1313  INH1313     0.1510
     10  H2        13.2880  -14.5710  -16.5120 H     1313  INH1313     0.1570
     11  H3        12.7440  -13.4870  -15.2030 H     1313  INH1313     0.1570
     12  N2        16.5510  -15.1480  -14.3930 N.pl3 1313  INH1313    -0.3440
     13  C3        16.0950  -14.3640  -13.4170 C.3   1313  INH1313     0.1880
     14  H2        17.4540  -15.6200  -14.4190 H     1313  INH1313     0.1670
     15  C4        15.6280  -16.0700  -16.5870 C.2   1313  INH1313     0.1970
     16  O4        16.7440  -16.3910  -17.0510 O.2   1313  INH1313    -0.6450
     17  O5        14.5310  -16.4000  -17.0870 O.3   1313  INH1313    -0.7720
     18  H         14.2790  -16.0670  -17.9260 H     1313  INH1313     0.1670
     19  O7        15.6220  -12.5940  -11.1480 O.3   1313  INH1313    -0.3880
     20  H5        16.4160  -12.0800  -11.0590 H     1313  INH1313     0.2100
     21  O8        13.3630  -11.7390  -10.2490 O.3   1313  INH1313    -0.3900
     22  H7        13.1040  -11.0270   -9.6760 H     1313  INH1313     0.2100
     23  C7        12.0130  -10.1820  -13.1410 C.3   1313  INH1313     0.2150
     24  O6        13.1200   -9.3050  -13.3620 O.3   1313  INH1313    -0.2940
     25  P1        13.1560   -8.3480  -14.6570 P.3   1313  INH1313     0.3900
     26  O3        11.8560   -7.6930  -14.9200 O.2   1313  INH1313    -0.6320
     27  O1        13.6460   -9.2820  -15.8710 O.3   1313  INH1313    -0.3070
     28  H         12.9210   -9.3960  -16.5050 H     1313  INH1313     0.2220
     29  O2        14.3490   -7.2990  -14.3990 O.3   1313  INH1313    -0.3070
     30  H         13.9950   -6.5080  -13.9630 H     1313  INH1313     0.2220
@<TRIPOS>BOND
     1    18    17    1
     2    17    15    1
     3    16    15    2
     4    15     9    1
     5    10     8    1
     6    28    27    1
     7    27    25    1
     8     8    11    1
     9     8     7    1
    10     9     7    2
    11     9    12    1
    12    26    25    2
    13     7     6    1
    14    25    29    1
    15    25    24    1
    16    14    12    1
    17    29    30    1
    18    12    13    1
    19     6    13    1
    20     6     5    1
    21     4     5    1
    22     4     3    1
    23    24    23    1
    24    23     3    1
    25     5     1    1
    26     3     2    1
    27     1     2    1
    28     1    19    1
    29     2    21    1
    30    19    20    1
    31    21    22    1
