@<TRIPOS>MOLECULE
/tmp/ewbell/vina_2nsl_2nsl_lig/vina/vina5.pdbqt
 30 31 0 0 0
SMALL
GASTEIGER

@<TRIPOS>ATOM
      1  C5        13.3970  -12.9740  -12.4260 C.3   1313  INH1313     0.1980
      2  C6        12.5090  -11.7840  -12.0650 C.3   1313  INH1313     0.1820
      3  C8        12.7640  -10.8090  -13.2200 C.3   1313  INH1313     0.1800
      4  O9        13.7000  -11.4620  -14.0950 O.3   1313  INH1313    -0.3530
      5  C9        13.3730  -12.8500  -13.9470 C.3   1313  INH1313     0.2620
      6  N1        14.3860  -13.7660  -14.5140 N.pl3 1313  INH1313    -0.2970
      7  C1        14.3800  -14.2740  -15.7420 C.2   1313  INH1313     0.1380
      8  N3        13.5740  -13.9110  -16.7370 N.pl3 1313  INH1313    -0.3830
      9  C2        15.4100  -15.1990  -15.8130 C.2   1313  INH1313     0.1510
     10  H2        13.6510  -14.3700  -17.6560 H     1313  INH1313     0.1570
     11  H3        12.8750  -13.1700  -16.5880 H     1313  INH1313     0.1570
     12  N2        16.0270  -15.2080  -14.6360 N.pl3 1313  INH1313    -0.3440
     13  C3        15.3970  -14.3300  -13.8550 C.3   1313  INH1313     0.1880
     14  H2        16.8320  -15.7790  -14.3790 H     1313  INH1313     0.1670
     15  C4        15.7040  -16.1240  -16.9950 C.2   1313  INH1313     0.1970
     16  O4        14.7440  -16.4600  -17.7230 O.2   1313  INH1313    -0.6450
     17  O5        16.8840  -16.5020  -17.1610 O.3   1313  INH1313    -0.7720
     18  H         17.1580  -16.8330  -17.9940 H     1313  INH1313     0.1670
     19  O7        12.7560  -14.1980  -12.0550 O.3   1313  INH1313    -0.3880
     20  H5        12.1920  -14.4860  -12.7640 H     1313  INH1313     0.2100
     21  O8        11.1380  -12.1920  -12.0640 O.3   1313  INH1313    -0.3900
     22  H7        10.7260  -11.9080  -11.2570 H     1313  INH1313     0.2100
     23  C7        13.3720   -9.5050  -12.6980 C.3   1313  INH1313     0.2150
     24  O6        12.3830   -8.7480  -11.9970 O.3   1313  INH1313    -0.2940
     25  P1        11.6480   -7.5070  -12.7120 P.3   1313  INH1313     0.3900
     26  O3        10.3330   -7.1960  -12.1090 O.2   1313  INH1313    -0.6320
     27  O1        11.5470   -7.9040  -14.2680 O.3   1313  INH1313    -0.3070
     28  H         12.3880   -8.2890  -14.5600 H     1313  INH1313     0.2220
     29  O2        12.6820   -6.2760  -12.6370 O.3   1313  INH1313    -0.3070
     30  H         12.5240   -5.7700  -11.8250 H     1313  INH1313     0.2220
@<TRIPOS>BOND
     1    18    17    1
     2    16    15    2
     3    10     8    1
     4    17    15    1
     5    15     9    1
     6     8    11    1
     7     8     7    1
     8     9     7    2
     9     9    12    1
    10     7     6    1
    11    12    14    1
    12    12    13    1
    13    28    27    1
    14     6     5    1
    15     6    13    1
    16    27    25    1
    17     4     5    1
    18     4     3    1
    19     5     1    1
    20     3    23    1
    21     3     2    1
    22    20    19    1
    23    25    29    1
    24    25    26    2
    25    25    24    1
    26    23    24    1
    27    29    30    1
    28     1     2    1
    29     1    19    1
    30     2    21    1
    31    21    22    1
