@<TRIPOS>MOLECULE
/tmp/ewbell/vina_2nsl_2nsl_lig/vina/vina3.pdbqt
 30 31 0 0 0
SMALL
GASTEIGER

@<TRIPOS>ATOM
      1  C5        13.0310  -13.8020  -12.8690 C.3   1313  INH1313     0.1980
      2  C6        12.4580  -12.6590  -12.0310 C.3   1313  INH1313     0.1820
      3  C8        13.5000  -11.5500  -12.2140 C.3   1313  INH1313     0.1800
      4  O9        14.5110  -12.0900  -13.0820 O.3   1313  INH1313    -0.3530
      5  C9        13.7750  -12.9870  -13.9240 C.3   1313  INH1313     0.2620
      6  N1        14.6280  -13.9010  -14.7140 N.pl3 1313  INH1313    -0.2970
      7  C1        14.4230  -14.2660  -15.9760 C.2   1313  INH1313     0.1380
      8  N3        13.5290  -13.7400  -16.8090 N.pl3 1313  INH1313    -0.3830
      9  C2        15.3550  -15.2450  -16.2800 C.2   1313  INH1313     0.1510
     10  H2        13.4500  -14.0980  -17.7710 H     1313  INH1313     0.1570
     11  H3        12.9170  -12.9740  -16.4910 H     1313  INH1313     0.1570
     12  N2        16.1160  -15.4280  -15.2050 N.pl3 1313  INH1313    -0.3440
     13  C3        15.6660  -14.6030  -14.2600 C.3   1313  INH1313     0.1880
     14  H2        16.8970  -16.0780  -15.1200 H     1313  INH1313     0.1670
     15  C4        15.4190  -16.0500  -17.5790 C.2   1313  INH1313     0.1970
     16  O4        16.5070  -16.5900  -17.8750 O.2   1313  INH1313    -0.6450
     17  O5        14.3840  -16.1150  -18.2780 O.3   1313  INH1313    -0.7720
     18  H         14.3410  -15.6600  -19.0960 H     1313  INH1313     0.1670
     19  O7        11.9740  -14.5230  -13.5070 O.3   1313  INH1313    -0.3880
     20  H5        12.3340  -15.2790  -13.9570 H     1313  INH1313     0.2100
     21  O8        11.2030  -12.2460  -12.5780 O.3   1313  INH1313    -0.3900
     22  H7        11.2460  -12.2810  -13.5260 H     1313  INH1313     0.2100
     23  C7        14.1250  -11.1720  -10.8700 C.3   1313  INH1313     0.2150
     24  O6        13.1520  -11.2780   -9.8280 O.3   1313  INH1313    -0.2940
     25  P1        12.2790   -9.9960   -9.3960 P.3   1313  INH1313     0.3900
     26  O3        13.0440   -8.7320   -9.4680 O.2   1313  INH1313    -0.6320
     27  O1        11.7390  -10.3200   -7.9150 O.3   1313  INH1313    -0.3070
     28  H         12.4910  -10.4960   -7.3280 H     1313  INH1313     0.2220
     29  O2        10.9820  -10.0020  -10.3490 O.3   1313  INH1313    -0.3070
     30  H         10.4020   -9.2620  -10.1110 H     1313  INH1313     0.2220
@<TRIPOS>BOND
     1    18    17    1
     2    17    15    1
     3    16    15    2
     4    10     8    1
     5    15     9    1
     6     8    11    1
     7     8     7    1
     8     9     7    2
     9     9    12    1
    10     7     6    1
    11    12    14    1
    12    12    13    1
    13     6    13    1
    14     6     5    1
    15    20    19    1
    16     5     4    1
    17     5     1    1
    18    22    21    1
    19    19     1    1
    20     4     3    1
    21     1     2    1
    22    21     2    1
    23     3     2    1
    24     3    23    1
    25    23    24    1
    26    29    30    1
    27    29    25    1
    28    24    25    1
    29    26    25    2
    30    25    27    1
    31    27    28    1
