@<TRIPOS>MOLECULE
/tmp/ewbell/vina_2nsl_2nsl_lig/vina/vina4.pdbqt
 30 31 0 0 0
SMALL
GASTEIGER

@<TRIPOS>ATOM
      1  C5        11.7700  -11.8550  -12.7720 C.3   1313  INH1313     0.1980
      2  C6        12.6630  -12.9760  -12.2390 C.3   1313  INH1313     0.1820
      3  C8        14.0610  -12.3510  -12.2940 C.3   1313  INH1313     0.1800
      4  O9        13.8820  -11.0180  -12.8050 O.3   1313  INH1313    -0.3530
      5  C9        12.5870  -10.6500  -12.3150 C.3   1313  INH1313     0.2620
      6  N1        12.0320   -9.4330  -12.9480 N.pl3 1313  INH1313    -0.2970
      7  C1        12.3990   -8.9270  -14.1210 C.2   1313  INH1313     0.1380
      8  N3        13.1880   -9.5140  -15.0170 N.pl3 1313  INH1313    -0.3830
      9  C2        11.7520   -7.7090  -14.2660 C.2   1313  INH1313     0.1510
     10  H2        13.4110   -9.0320  -15.8990 H     1313  INH1313     0.1570
     11  H3        13.5740  -10.4500  -14.8270 H     1313  INH1313     0.1570
     12  N2        10.9940   -7.5230  -13.1900 N.pl3 1313  INH1313    -0.3440
     13  C3        11.1700   -8.5800  -12.3970 C.3   1313  INH1313     0.1880
     14  H2        10.3900   -6.7220  -13.0060 H     1313  INH1313     0.1670
     15  C4        11.9680   -6.7090  -15.4030 C.2   1313  INH1313     0.1970
     16  O4        13.1460   -6.4550  -15.7380 O.2   1313  INH1313    -0.6450
     17  O5        10.9560   -6.1950  -15.9280 O.3   1313  INH1313    -0.7720
     18  H         10.1040   -6.3790  -15.5830 H     1313  INH1313     0.1670
     19  O7        10.5190  -11.8510  -12.0800 O.3   1313  INH1313    -0.3880
     20  H5        10.2180  -10.9550  -11.9760 H     1313  INH1313     0.2100
     21  O8        12.3100  -13.2670  -10.8850 O.3   1313  INH1313    -0.3900
     22  H7        11.6830  -12.6240  -10.5770 H     1313  INH1313     0.2100
     23  C7        14.9690  -13.1440  -13.2350 C.3   1313  INH1313     0.2150
     24  O6        14.6770  -12.8140  -14.5940 O.3   1313  INH1313    -0.2940
     25  P1        14.7490  -13.9430  -15.7400 P.3   1313  INH1313     0.3900
     26  O3        16.1220  -14.4490  -15.9590 O.2   1313  INH1313    -0.6320
     27  O1        14.1130  -13.2670  -17.0540 O.3   1313  INH1313    -0.3070
     28  H         14.3210  -12.3200  -17.0640 H     1313  INH1313     0.2220
     29  O2        13.7180  -15.0950  -15.2930 O.3   1313  INH1313    -0.3070
     30  H         13.9350  -15.9200  -15.7550 H     1313  INH1313     0.2220
@<TRIPOS>BOND
     1    28    27    1
     2    27    25    1
     3    26    25    2
     4    17    18    1
     5    17    15    1
     6    10     8    1
     7    30    29    1
     8    25    29    1
     9    25    24    1
    10    16    15    2
    11    15     9    1
    12     8    11    1
    13     8     7    1
    14    24    23    1
    15     9     7    2
    16     9    12    1
    17     7     6    1
    18    23     3    1
    19    12    14    1
    20    12    13    1
    21     6    13    1
    22     6     5    1
    23     4     5    1
    24     4     3    1
    25     1     5    1
    26     1     2    1
    27     1    19    1
    28     3     2    1
    29     2    21    1
    30    19    20    1
    31    21    22    1
