@<TRIPOS>MOLECULE
/tmp/ewbell/vina_2nsl_2nsl_lig/vina/vina1.pdbqt
 30 31 0 0 0
SMALL
GASTEIGER

@<TRIPOS>ATOM
      1  C5        12.9380  -13.4790  -12.5470 C.3   1313  INH1313     0.1980
      2  C6        12.3030  -12.3020  -11.8090 C.3   1313  INH1313     0.1820
      3  C8        13.4210  -11.2540  -11.8160 C.3   1313  INH1313     0.1800
      4  O9        14.5270  -11.8550  -12.5120 O.3   1313  INH1313    -0.3530
      5  C9        13.8870  -12.7130  -13.4650 C.3   1313  INH1313     0.2620
      6  N1        14.8050  -13.6770  -14.1110 N.pl3 1313  INH1313    -0.2970
      7  C1        14.6200  -14.2610  -15.2910 C.2   1313  INH1313     0.1380
      8  N3        13.6820  -13.9490  -16.1820 N.pl3 1313  INH1313    -0.3830
      9  C2        15.6240  -15.2030  -15.4490 C.2   1313  INH1313     0.1510
     10  H2        13.6250  -14.4670  -17.0710 H     1313  INH1313     0.1570
     11  H3        13.0140  -13.1910  -15.9830 H     1313  INH1313     0.1570
     12  N2        16.4040  -15.1460  -14.3730 N.pl3 1313  INH1313    -0.3440
     13  C3        15.8970  -14.2130  -13.5680 C.3   1313  INH1313     0.1880
     14  H2        17.2350  -15.7120  -14.1980 H     1313  INH1313     0.1670
     15  C4        15.7420  -16.2040  -16.5990 C.2   1313  INH1313     0.1970
     16  O4        14.6920  -16.7500  -17.0030 O.2   1313  INH1313    -0.6450
     17  O5        16.8810  -16.4300  -17.0620 O.3   1313  INH1313    -0.7720
     18  H         17.0890  -16.1750  -17.9390 H     1313  INH1313     0.1670
     19  O7        11.9590  -14.1440  -13.3510 O.3   1313  INH1313    -0.3880
     20  H5        12.3410  -14.9270  -13.7290 H     1313  INH1313     0.2100
     21  O8        11.1780  -11.8220  -12.5500 O.3   1313  INH1313    -0.3900
     22  H7        11.4170  -11.0220  -13.0030 H     1313  INH1313     0.2100
     23  C7        13.8410  -10.9050  -10.3870 C.3   1313  INH1313     0.2150
     24  O6        14.6010  -11.9760   -9.8230 O.3   1313  INH1313    -0.2940
     25  P1        15.8670  -11.6660   -8.8780 P.3   1313  INH1313     0.3900
     26  O3        16.6770  -12.8710   -8.5930 O.2   1313  INH1313    -0.6320
     27  O1        15.2600  -10.9880   -7.5510 O.3   1313  INH1313    -0.3070
     28  H         15.2130  -11.6490   -6.8420 H     1313  INH1313     0.2220
     29  O2        16.7020  -10.5080   -9.6220 O.3   1313  INH1313    -0.3070
     30  H         16.6730  -10.6530  -10.5800 H     1313  INH1313     0.2220
@<TRIPOS>BOND
     1    18    17    1
     2    10     8    1
     3    17    15    1
     4    16    15    2
     5    15     9    1
     6     8    11    1
     7     8     7    1
     8     9     7    2
     9     9    12    1
    10     7     6    1
    11    12    14    1
    12    12    13    1
    13     6    13    1
    14     6     5    1
    15    20    19    1
    16     5     1    1
    17     5     4    1
    18    19     1    1
    19    22    21    1
    20    21     2    1
    21     1     2    1
    22     4     3    1
    23     3     2    1
    24     3    23    1
    25    30    29    1
    26    23    24    1
    27    24    25    1
    28    29    25    1
    29    25    26    2
    30    25    27    1
    31    27    28    1
