@<TRIPOS>MOLECULE
./ligand/2qi6_lig.pdb
 69 72 0 0 0
SMALL
GASTEIGER

@<TRIPOS>ATOM
      1  O1        18.7210   33.4810   13.7780 O.2   203  INH203     -0.1528
      2  S1        18.2190   32.6640   14.8350 S.O2  203  INH203      0.0610
      3  O2        17.4440   31.5890   14.2840 O.2   203  INH203     -0.1528
      4  C1        17.3360   33.5400   15.8980 C.ar  203  INH203      0.1067
      5  C2        17.4880   34.9220   16.1480 C.ar  203  INH203     -0.0195
      6  C3        16.7060   35.6050   17.1110 C.ar  203  INH203      0.0408
      7  S2        16.8070   37.2670   17.4970 S.2   203  INH203     -0.0754
      8  C4        15.5420   36.9760   18.6520 C.ar  203  INH203      0.0659
      9  N1        15.1120   35.6960   18.7270 N.ar  203  INH203     -0.2474
     10  C5        15.7570   34.8860   17.8460 C.ar  203  INH203      0.0783
     11  C6        15.5950   33.5260   17.6090 C.ar  203  INH203     -0.0334
     12  C7        16.3590   32.8690   16.6450 C.ar  203  INH203     -0.0333
     13  N2        19.5460   32.0280   15.5330 N.3   203  INH203     -0.1738
     14  C8        20.3050   33.0090   16.3460 C.3   203  INH203      0.0229
     15  C9        21.8000   32.6630   16.3620 C.3   203  INH203     -0.0323
     16  C10       22.4140   32.6170   14.9630 C.3   203  INH203     -0.0615
     17  C11       22.5300   33.6430   17.2740 C.3   203  INH203     -0.0615
     18  C12       19.2780   30.7630   16.2530 C.3   203  INH203      0.0483
     19  C13       20.0940   29.6050   15.6720 C.3   203  INH203      0.0881
     20  O3        20.0180   28.4520   16.5290 O.3   203  INH203     -0.3886
     21  C14       19.6190   29.2710   14.2680 C.3   203  INH203      0.0545
     22  C15       18.3030   28.4780   14.2000 C.3   203  INH203     -0.0067
     23  C16       17.9430   28.1560   12.7560 C.ar  203  INH203     -0.0455
     24  C17       17.9810   26.8290   12.3090 C.ar  203  INH203     -0.0585
     25  C18       17.6780   26.5180   10.9930 C.ar  203  INH203     -0.0615
     26  C19       17.3230   27.5230   10.1020 C.ar  203  INH203     -0.0617
     27  C20       17.2850   28.8450   10.5340 C.ar  203  INH203     -0.0615
     28  C21       17.5920   29.1580   11.8600 C.ar  203  INH203     -0.0585
     29  N3        20.5600   28.4090   13.5660 N.am  203  INH203     -0.3057
     30  C22       21.4160   28.8060   12.6320 C.2   203  INH203      0.2445
     31  O4        21.5770   29.9590   12.2540 O.2   203  INH203     -0.2702
     32  C23       22.1820   27.7330   11.9320 C.ar  203  INH203      0.0401
     33  C24       21.4700   26.6080   11.5000 C.ar  203  INH203     -0.0494
     34  C25       22.1020   25.5750   10.8090 C.ar  203  INH203     -0.0576
     35  C26       23.4540   25.6830   10.5210 C.ar  203  INH203     -0.0201
     36  C27       24.1510   26.8190   10.9330 C.ar  203  INH203      0.1176
     37  O5        25.4730   26.9220   10.6600 O.3   203  INH203     -0.5067
     38  C28       23.5260   27.8440   11.6340 C.ar  203  INH203     -0.0081
     39  H1        18.2280   35.4780   15.5840 H     203  INH203      0.0649
     40  H2        15.1250   37.7680   19.2720 H     203  INH203      0.0907
     41  H3        14.8640   32.9680   18.1820 H     203  INH203      0.0640
     42  H4        16.1930   31.8120   16.4690 H     203  INH203      0.0638
     43  H5        19.9210   32.9970   17.3770 H     203  INH203      0.0446
     44  H6        20.1720   34.0130   15.9170 H     203  INH203      0.0446
     45  H7        21.9050   31.6570   16.7950 H     203  INH203      0.0308
     46  H8        23.4820   32.3650   15.0400 H     203  INH203      0.0233
     47  H9        22.3020   33.5990   14.4810 H     203  INH203      0.0233
     48  H10       21.8990   31.8530   14.3620 H     203  INH203      0.0233
     49  H11       22.0560   33.6430   18.2670 H     203  INH203      0.0233
     50  H12       22.4780   34.6540   16.8430 H     203  INH203      0.0233
     51  H13       23.5830   33.3390   17.3710 H     203  INH203      0.0233
     52  H14       19.5430   30.8910   17.3130 H     203  INH203      0.0470
     53  H15       18.2080   30.5240   16.1700 H     203  INH203      0.0470
     54  H16       21.1460   29.9200   15.6130 H     203  INH203      0.0625
     55  H17       19.1150   28.1640   16.5930 H     203  INH203      0.2099
     56  H18       19.5010   30.2190   13.7230 H     203  INH203      0.0527
     57  H19       17.4970   29.0770   14.6480 H     203  INH203      0.0332
     58  H20       18.4180   27.5390   14.7620 H     203  INH203      0.0332
     59  H21       18.2500   26.0380   12.9990 H     203  INH203      0.0620
     60  H22       17.7180   25.4880   10.6580 H     203  INH203      0.0618
     61  H23       17.0770   27.2780    9.0750 H     203  INH203      0.0618
     62  H24       17.0170   29.6330    9.8400 H     203  INH203      0.0618
     63  H25       17.5560   30.1890   12.1920 H     203  INH203      0.0620
     64  H26       20.5620   27.4380   13.8070 H     203  INH203      0.1494
     65  H27       20.4080   26.5390   11.7060 H     203  INH203      0.0625
     66  H28       21.5440   24.6990   10.5010 H     203  INH203      0.0619
     67  H29       23.9640   24.8930    9.9810 H     203  INH203      0.0654
     68  H30       25.8040   27.7450   11.0010 H     203  INH203      0.2921
     69  H31       24.0860   28.7190   11.9430 H     203  INH203      0.0661
@<TRIPOS>BOND
     1     1     2    2
     2     2    13    1
     3     2     4    1
     4     2     3    2
     5     4    12   ar
     6     4     5   ar
     7     5    39    1
     8     5     6   ar
     9     6    10   ar
    10     6     7   ar
    11     7     8   ar
    12     8    40    1
    13     8     9   ar
    14     9    10   ar
    15    10    11   ar
    16    11    41    1
    17    11    12   ar
    18    12    42    1
    19    13    18    1
    20    13    14    1
    21    14    44    1
    22    14    43    1
    23    14    15    1
    24    15    45    1
    25    15    17    1
    26    15    16    1
    27    16    48    1
    28    16    47    1
    29    16    46    1
    30    17    51    1
    31    17    50    1
    32    17    49    1
    33    18    53    1
    34    18    52    1
    35    18    19    1
    36    19    54    1
    37    19    21    1
    38    19    20    1
    39    20    55    1
    40    21    56    1
    41    21    29    1
    42    21    22    1
    43    22    58    1
    44    22    57    1
    45    22    23    1
    46    23    28   ar
    47    23    24   ar
    48    24    59    1
    49    24    25   ar
    50    25    60    1
    51    25    26   ar
    52    26    61    1
    53    26    27   ar
    54    27    62    1
    55    27    28   ar
    56    28    63    1
    57    29    64    1
    58    29    30   am
    59    30    32    1
    60    30    31    2
    61    32    38   ar
    62    32    33   ar
    63    33    65    1
    64    33    34   ar
    65    34    66    1
    66    34    35   ar
    67    35    67    1
    68    35    36   ar
    69    36    38   ar
    70    36    37    1
    71    37    68    1
    72    38    69    1
