@<TRIPOS>MOLECULE
/tmp/ewbell/vina_2qi6_2qi6_lig/vina/vina5.pdbqt
 42 45 0 0 0
SMALL
GASTEIGER

@<TRIPOS>ATOM
      1  C13       18.9400   35.3500   18.3250 C.3   203  INH203      0.1550
      2  C12       18.0950   36.5990   18.0600 C.3   203  INH203      0.1410
      3  N2        18.9110   37.8300   18.1390 N.3   203  INH203     -0.2040
      4  S1        18.2500   38.9810   19.0830 S.O2  203  INH203      0.2430
      5  O1        17.1470   38.3390   19.7210 O.2   203  INH203     -0.2060
      6  O2        19.2200   39.3620   20.0700 O.2   203  INH203     -0.2060
      7  C1        17.7620   40.2760   18.2100 C.ar  203  INH203      0.0760
      8  C7        16.4330   40.3010   17.7660 C.ar  203  INH203      0.0270
      9  C6        15.9180   41.3870   17.0590 C.ar  203  INH203      0.0320
     10  C5        16.7180   42.4790   16.7420 C.ar  203  INH203      0.0490
     11  C3        18.0580   42.4920   17.1450 C.ar  203  INH203      0.0340
     12  N1        16.4050   43.6150   16.0640 N.pl3 203  INH203     -0.3590
     13  C2        18.5620   41.3910   17.8790 C.ar  203  INH203      0.0460
     14  S2        18.9310   43.8900   16.6940 S.3   203  INH203     -0.0830
     15  C4        17.4660   44.4460   15.9440 C.3   203  INH203      0.1390
     16  H1        15.4780   43.8190   15.6900 H     203  INH203      0.1660
     17  C8        20.3360   37.5640   18.4540 C.3   203  INH203      0.1110
     18  C9        21.2080   37.7140   17.2010 C.3   203  INH203     -0.0090
     19  C11       22.5630   37.0620   17.4550 C.3   203  INH203      0.0110
     20  C10       21.3490   39.1670   16.7470 C.3   203  INH203      0.0110
     21  C14       18.7570   34.3370   17.2070 C.3   203  INH203      0.1180
     22  N3        17.3620   34.2130   16.8070 N.am  203  INH203     -0.3490
     23  H26       16.7320   34.9270   17.1130 H     203  INH203      0.1630
     24  C22       16.8580   33.2320   16.0680 C.2   203  INH203      0.2520
     25  O4        15.6900   33.1280   15.7180 O.2   203  INH203     -0.2680
     26  C23       17.7910   32.1220   15.7120 C.ar  203  INH203      0.0340
     27  C28       18.5120   31.4160   16.6540 C.ar  203  INH203      0.0530
     28  C27       19.3980   30.4320   16.2320 C.ar  203  INH203      0.0660
     29  C26       19.5790   30.1410   14.8800 C.ar  203  INH203      0.0360
     30  C25       18.8650   30.8560   13.9310 C.ar  203  INH203      0.0040
     31  C24       17.9850   31.8540   14.3510 C.ar  203  INH203      0.0170
     32  O5        20.0880   29.7280   17.1600 O.3   203  INH203     -0.3610
     33  H30       19.6350   29.7730   17.9940 H     203  INH203      0.2170
     34  C15       19.4680   34.6900   15.8900 C.3   203  INH203      0.0660
     35  C16       20.7760   33.9220   15.7610 C.ar  203  INH203     -0.0560
     36  C21       21.5060   33.5480   16.8830 C.ar  203  INH203      0.0070
     37  C20       22.6930   32.8250   16.7450 C.ar  203  INH203      0.0010
     38  C19       23.1580   32.4810   15.4810 C.ar  203  INH203      0.0000
     39  C18       22.4300   32.8490   14.3560 C.ar  203  INH203      0.0010
     40  C17       21.2520   33.5660   14.4930 C.ar  203  INH203      0.0070
     41  O3        18.6060   34.7740   19.6010 O.3   203  INH203     -0.3920
     42  H17       18.0060   35.3490   20.0600 H     203  INH203      0.2100
@<TRIPOS>BOND
     1    30    31   ar
     2    30    29   ar
     3    31    26   ar
     4    39    40   ar
     5    39    38   ar
     6    40    35   ar
     7    29    28   ar
     8    38    37   ar
     9    16    12    1
    10    26    24    1
    11    26    27   ar
    12    25    24    2
    13    35    34    1
    14    35    36   ar
    15    34    21    1
    16    15    12    1
    17    15    14    1
    18    12    10    1
    19    24    22   am
    20    28    27   ar
    21    28    32    1
    22    14    11    1
    23    10     9   ar
    24    10    11   ar
    25    37    36   ar
    26    20    18    1
    27    22    23    1
    28    22    21    1
    29     9     8   ar
    30    11    13   ar
    31    32    33    1
    32    18    19    1
    33    18    17    1
    34    21     1    1
    35     8     7   ar
    36    13     7   ar
    37     2     3    1
    38     2     1    1
    39     3    17    1
    40     3     4    1
    41     7     4    1
    42     1    41    1
    43     4     5    2
    44     4     6    2
    45    41    42    1
