@<TRIPOS>MOLECULE
/tmp/ewbell/vina_2qi6_2qi6_lig/vina/vina2.pdbqt
 42 45 0 0 0
SMALL
GASTEIGER

@<TRIPOS>ATOM
      1  C13       17.2920   32.7870   16.0760 C.3   203  INH203      0.1550
      2  C12       17.1630   34.2940   15.8360 C.3   203  INH203      0.1410
      3  N2        17.5110   35.0660   17.0490 N.3   203  INH203     -0.2040
      4  S1        16.2130   35.6980   17.8040 S.O2  203  INH203      0.2430
      5  O1        15.1270   35.4740   16.9070 O.2   203  INH203     -0.2060
      6  O2        15.9970   34.9600   19.0150 O.2   203  INH203     -0.2060
      7  C1        16.4100   37.2920   18.1150 C.ar  203  INH203      0.0760
      8  C7        16.9990   38.0840   17.1210 C.ar  203  INH203      0.0270
      9  C6        17.1600   39.4600   17.2790 C.ar  203  INH203      0.0320
     10  C5        16.7640   40.0970   18.4500 C.ar  203  INH203      0.0490
     11  C3        16.1880   39.3460   19.4810 C.ar  203  INH203      0.0340
     12  N1        16.8400   41.4100   18.7910 N.pl3 203  INH203     -0.3590
     13  C2        16.0140   37.9530   19.2980 C.ar  203  INH203      0.0460
     14  S2        15.7440   40.2460   20.8640 S.3   203  INH203     -0.0830
     15  C4        16.3600   41.6430   20.0340 C.3   203  INH203      0.1390
     16  H1        17.2170   42.1360   18.1820 H     203  INH203      0.1660
     17  C8        18.4190   34.3330   17.9640 C.3   203  INH203      0.1110
     18  C9        19.7280   35.1060   18.1690 C.3   203  INH203     -0.0090
     19  C11       19.6290   35.9260   19.4500 C.3   203  INH203      0.0110
     20  C10       20.1020   35.9700   16.9640 C.3   203  INH203      0.0110
     21  C14       18.1950   32.1570   15.0280 C.3   203  INH203      0.1180
     22  N3        17.4360   31.6310   13.9010 N.am  203  INH203     -0.3490
     23  H26       16.5110   31.9860   13.7650 H     203  INH203      0.1630
     24  C22       17.8720   30.7220   13.0380 C.2   203  INH203      0.2520
     25  O4        17.2460   30.2850   12.0820 O.2   203  INH203     -0.2680
     26  C23       19.2130   30.1280   13.3200 C.ar  203  INH203      0.0340
     27  C28       19.4880   29.4030   14.4630 C.ar  203  INH203      0.0530
     28  C27       20.7780   28.9290   14.6710 C.ar  203  INH203      0.0660
     29  C26       21.8020   29.1690   13.7550 C.ar  203  INH203      0.0360
     30  C25       21.5320   29.9060   12.6120 C.ar  203  INH203      0.0040
     31  C24       20.2410   30.3940   12.4080 C.ar  203  INH203      0.0170
     32  O5        21.0380   28.2020   15.7830 O.3   203  INH203     -0.3610
     33  H30       20.5500   27.3870   15.7510 H     203  INH203      0.2170
     34  C15       19.1870   33.1240   14.3600 C.3   203  INH203      0.0660
     35  C16       20.5920   32.9180   14.9080 C.ar  203  INH203     -0.0560
     36  C21       20.8020   32.3630   16.1650 C.ar  203  INH203      0.0070
     37  C20       22.0990   32.1620   16.6420 C.ar  203  INH203      0.0010
     38  C19       23.1920   32.5240   15.8630 C.ar  203  INH203      0.0000
     39  C18       22.9880   33.0750   14.6030 C.ar  203  INH203      0.0010
     40  C17       21.7010   33.2750   14.1310 C.ar  203  INH203      0.0070
     41  O3        15.9960   32.1630   16.0810 O.3   203  INH203     -0.3920
     42  H17       15.3870   32.7020   16.5710 H     203  INH203      0.2100
@<TRIPOS>BOND
     1    25    24    2
     2    31    30   ar
     3    31    26   ar
     4    30    29   ar
     5    24    26    1
     6    24    22   am
     7    26    27   ar
     8    29    28   ar
     9    23    22    1
    10    22    21    1
    11    40    39   ar
    12    40    35   ar
    13    34    35    1
    14    34    21    1
    15    27    28   ar
    16    39    38   ar
    17    28    32    1
    18    35    36   ar
    19    21     1    1
    20    33    32    1
    21     2     1    1
    22     2     3    1
    23    38    37   ar
    24     1    41    1
    25    41    42    1
    26    36    37   ar
    27     5     4    2
    28    20    18    1
    29     3     4    1
    30     3    17    1
    31     8     9   ar
    32     8     7   ar
    33     9    10   ar
    34     4     7    1
    35     4     6    2
    36    17    18    1
    37     7    13   ar
    38    18    19    1
    39    16    12    1
    40    10    12    1
    41    10    11   ar
    42    12    15    1
    43    13    11   ar
    44    11    14    1
    45    15    14    1
