@<TRIPOS>MOLECULE
/tmp/ewbell/vina_2qi6_2qi6_lig/vina/vina3.pdbqt
 42 45 0 0 0
SMALL
GASTEIGER

@<TRIPOS>ATOM
      1  C13       18.4650   35.1790   16.9400 C.3   203  INH203      0.1550
      2  C12       18.4720   33.6910   17.3000 C.3   203  INH203      0.1410
      3  N2        19.1970   32.8930   16.2870 N.3   203  INH203     -0.2040
      4  S1        18.2120   32.0030   15.3420 S.O2  203  INH203      0.2430
      5  O1        17.2160   31.4990   16.2300 O.2   203  INH203     -0.2060
      6  O2        17.6020   32.8790   14.3830 O.2   203  INH203     -0.2060
      7  C1        19.0190   30.7900   14.6000 C.ar  203  INH203      0.0760
      8  C7        20.0540   30.1640   15.3070 C.ar  203  INH203      0.0270
      9  C6        20.7620   29.0890   14.7730 C.ar  203  INH203      0.0320
     10  C5        20.4830   28.6110   13.4970 C.ar  203  INH203      0.0490
     11  C3        19.4710   29.2160   12.7420 C.ar  203  INH203      0.0340
     12  N1        21.0570   27.5910   12.8080 N.pl3 203  INH203     -0.3590
     13  C2        18.7480   30.2950   13.3050 C.ar  203  INH203      0.0460
     14  S2        19.2270   28.5360   11.1930 S.3   203  INH203     -0.0830
     15  C4        20.5170   27.4380   11.5770 C.3   203  INH203      0.1390
     16  H1        21.8090   27.0070   13.1750 H     203  INH203      0.1660
     17  C8        20.1820   33.6900   15.5160 C.3   203  INH203      0.1110
     18  C9        21.6140   33.3670   15.9610 C.3   203  INH203     -0.0090
     19  C11       22.1230   34.4880   16.8600 C.3   203  INH203      0.0110
     20  C10       22.5560   33.1030   14.7860 C.3   203  INH203      0.0110
     21  C14       18.4660   36.0310   18.1980 C.3   203  INH203      0.1180
     22  N3        17.1160   36.3160   18.6640 N.am  203  INH203     -0.3490
     23  H26       16.5150   35.5350   18.8340 H     203  INH203      0.1630
     24  C22       16.6180   37.5270   18.8840 C.2   203  INH203      0.2520
     25  O4        15.4890   37.7730   19.2870 O.2   203  INH203     -0.2680
     26  C23       17.4940   38.6810   18.5230 C.ar  203  INH203      0.0340
     27  C28       17.8690   38.9610   17.2240 C.ar  203  INH203      0.0530
     28  C27       18.7290   40.0250   16.9820 C.ar  203  INH203      0.0660
     29  C26       19.2250   40.8170   18.0180 C.ar  203  INH203      0.0360
     30  C25       18.8580   40.5310   19.3250 C.ar  203  INH203      0.0040
     31  C24       18.0060   39.4550   19.5720 C.ar  203  INH203      0.0170
     32  O5        19.0800   40.3090   15.7060 O.3   203  INH203     -0.3610
     33  H30       19.7240   41.0080   15.7010 H     203  INH203      0.2170
     34  C15       19.1280   35.3780   19.4230 C.3   203  INH203      0.0660
     35  C16       20.4670   36.0350   19.7260 C.ar  203  INH203     -0.0560
     36  C21       20.8060   37.2670   19.1800 C.ar  203  INH203      0.0070
     37  C20       22.0310   37.8630   19.4870 C.ar  203  INH203      0.0010
     38  C19       22.9250   37.2230   20.3380 C.ar  203  INH203      0.0000
     39  C18       22.5900   35.9920   20.8900 C.ar  203  INH203      0.0010
     40  C17       21.3740   35.4000   20.5840 C.ar  203  INH203      0.0070
     41  O3        17.3340   35.4940   16.1070 O.3   203  INH203     -0.3920
     42  H17       16.9850   36.3420   16.3540 H     203  INH203      0.2100
@<TRIPOS>BOND
     1    14    15    1
     2    14    11    1
     3    15    12    1
     4    11    13   ar
     5    11    10   ar
     6    12    16    1
     7    12    10    1
     8    13     7   ar
     9    10     9   ar
    10     6     4    2
    11     7     8   ar
    12     7     4    1
    13     9     8   ar
    14    20    18    1
    15     4     5    2
    16     4     3    1
    17    17    18    1
    18    17     3    1
    19    33    32    1
    20    32    28    1
    21    18    19    1
    22    41    42    1
    23    41     1    1
    24     3     2    1
    25     1     2    1
    26     1    21    1
    27    28    27   ar
    28    28    29   ar
    29    27    26   ar
    30    29    30   ar
    31    21    22    1
    32    21    34    1
    33    26    24    1
    34    26    31   ar
    35    22    23    1
    36    22    24   am
    37    24    25    2
    38    36    37   ar
    39    36    35   ar
    40    30    31   ar
    41    34    35    1
    42    37    38   ar
    43    35    40   ar
    44    38    39   ar
    45    40    39   ar
