@<TRIPOS>MOLECULE
/tmp/ewbell/vina_2qi6_2qi6_lig/vina/vina1.pdbqt
 42 45 0 0 0
SMALL
GASTEIGER

@<TRIPOS>ATOM
      1  C13       18.7650   33.7020   15.2710 C.3   203  INH203      0.1550
      2  C12       19.1350   32.2260   15.4460 C.3   203  INH203      0.1410
      3  N2        20.2630   31.8440   14.5680 N.3   203  INH203     -0.2040
      4  S1        19.7940   31.3920   13.0760 S.O2  203  INH203      0.2430
      5  O1        18.3730   31.2960   13.1560 O.2   203  INH203     -0.2060
      6  O2        20.1540   32.4340   12.1580 O.2   203  INH203     -0.2060
      7  C1        20.4640   29.9650   12.6360 C.ar  203  INH203      0.0760
      8  C7        21.8360   29.7920   12.8600 C.ar  203  INH203      0.0270
      9  C6        22.4800   28.5910   12.5630 C.ar  203  INH203      0.0320
     10  C5        21.7850   27.5250   12.0040 C.ar  203  INH203      0.0490
     11  C3        20.4170   27.6560   11.7430 C.ar  203  INH203      0.0340
     12  N1        22.2310   26.2920   11.6430 N.pl3 203  INH203     -0.3590
     13  C2        19.7710   28.8740   12.0670 C.ar  203  INH203      0.0460
     14  S2        19.6800   26.2750   11.0570 S.3   203  INH203     -0.0830
     15  C4        21.2470   25.5280   11.1160 C.3   203  INH203      0.1390
     16  H1        23.1950   25.9790   11.7580 H     203  INH203      0.1660
     17  C8        21.3570   32.8470   14.5580 C.3   203  INH203      0.1110
     18  C9        22.6270   32.2750   15.2010 C.3   203  INH203     -0.0090
     19  C11       22.4770   32.3090   16.7180 C.3   203  INH203      0.0110
     20  C10       23.8990   32.9840   14.7360 C.3   203  INH203      0.0110
     21  C14       18.7260   34.4040   16.6180 C.3   203  INH203      0.1180
     22  N3        17.5170   34.0830   17.3640 N.am  203  INH203     -0.3490
     23  H26       17.1890   33.1390   17.3230 H     203  INH203      0.1630
     24  C22       16.8160   34.9400   18.0960 C.2   203  INH203      0.2520
     25  O4        15.8060   34.6750   18.7360 O.2   203  INH203     -0.2680
     26  C23       17.2600   36.3650   18.0600 C.ar  203  INH203      0.0340
     27  C28       18.1450   36.8980   18.9760 C.ar  203  INH203      0.0530
     28  C27       18.4660   38.2490   18.9010 C.ar  203  INH203      0.0660
     29  C26       17.9160   39.0790   17.9240 C.ar  203  INH203      0.0360
     30  C25       17.0190   38.5480   17.0090 C.ar  203  INH203      0.0040
     31  C24       16.6850   37.1960   17.0910 C.ar  203  INH203      0.0170
     32  O5        19.3480   38.7640   19.7880 O.3   203  INH203     -0.3610
     33  H30       20.2090   38.8160   19.3880 H     203  INH203      0.2170
     34  C15       19.8510   34.0080   17.5890 C.3   203  INH203      0.0660
     35  C16       20.7590   35.1960   17.8750 C.ar  203  INH203     -0.0560
     36  C21       21.3680   35.3560   19.1140 C.ar  203  INH203      0.0070
     37  C20       22.2140   36.4410   19.3510 C.ar  203  INH203      0.0010
     38  C19       22.4480   37.3760   18.3480 C.ar  203  INH203      0.0000
     39  C18       21.8450   37.2180   17.1060 C.ar  203  INH203      0.0010
     40  C17       21.0040   36.1410   16.8710 C.ar  203  INH203      0.0070
     41  O3        17.5060   33.8300   14.5870 O.3   203  INH203     -0.3920
     42  H17       17.6510   33.7980   13.6490 H     203  INH203      0.2100
@<TRIPOS>BOND
     1    14    15    1
     2    14    11    1
     3    15    12    1
     4    12    16    1
     5    12    10    1
     6    11    10   ar
     7    11    13   ar
     8    10     9   ar
     9    13     7   ar
    10     6     4    2
    11     9     8   ar
    12     7     8   ar
    13     7     4    1
    14     4     5    2
    15     4     3    1
    16    42    41    1
    17    17     3    1
    18    17    18    1
    19     3     2    1
    20    41     1    1
    21    20    18    1
    22    18    19    1
    23     1     2    1
    24     1    21    1
    25    21    22    1
    26    21    34    1
    27    40    39   ar
    28    40    35   ar
    29    30    31   ar
    30    30    29   ar
    31    31    26   ar
    32    39    38   ar
    33    23    22    1
    34    22    24   am
    35    34    35    1
    36    35    36   ar
    37    29    28   ar
    38    26    24    1
    39    26    27   ar
    40    24    25    2
    41    38    37   ar
    42    28    27   ar
    43    28    32    1
    44    36    37   ar
    45    33    32    1
