@<TRIPOS>MOLECULE
/tmp/ewbell/vina_2qi6_2qi6_lig/vina/vina4.pdbqt
 42 45 0 0 0
SMALL
GASTEIGER

@<TRIPOS>ATOM
      1  C13       17.5210   33.5100   15.6960 C.3   203  INH203      0.1550
      2  C12       17.2010   33.7090   17.1800 C.3   203  INH203      0.1410
      3  N2        17.4500   35.1040   17.6050 N.3   203  INH203     -0.2040
      4  S1        16.0880   35.9140   17.9840 S.O2  203  INH203      0.2430
      5  O1        15.2200   35.7060   16.8720 O.2   203  INH203     -0.2060
      6  O2        15.5210   35.3120   19.1570 O.2   203  INH203     -0.2060
      7  C1        16.3780   37.5060   18.2240 C.ar  203  INH203      0.0760
      8  C7        16.8690   38.2510   17.1440 C.ar  203  INH203      0.0270
      9  C6        17.0970   39.6230   17.2430 C.ar  203  INH203      0.0320
     10  C5        16.8700   40.3020   18.4350 C.ar  203  INH203      0.0490
     11  C3        16.3980   39.5990   19.5490 C.ar  203  INH203      0.0340
     12  N1        17.0340   41.6190   18.7280 N.pl3 203  INH203     -0.3590
     13  C2        16.1530   38.2090   19.4280 C.ar  203  INH203      0.0460
     14  S2        16.1590   40.5470   20.9500 S.3   203  INH203     -0.0830
     15  C4        16.7180   41.8990   20.0130 C.3   203  INH203      0.1390
     16  H1        17.3580   42.3160   18.0570 H     203  INH203      0.1660
     17  C8        18.5040   35.2160   18.6430 C.3   203  INH203      0.1110
     18  C9        19.6670   36.0850   18.1470 C.3   203  INH203     -0.0090
     19  C11       20.8900   35.2020   17.9210 C.3   203  INH203      0.0110
     20  C10       19.9720   37.2570   19.0810 C.3   203  INH203      0.0110
     21  C14       18.4510   32.3230   15.5060 C.3   203  INH203      0.1180
     22  N3        19.5920   32.3760   16.4100 N.am  203  INH203     -0.3490
     23  H26       19.4730   32.8710   17.2720 H     203  INH203      0.1630
     24  C22       20.7760   31.8200   16.1860 C.2   203  INH203      0.2520
     25  O4        21.7350   31.8490   16.9460 O.2   203  INH203     -0.2680
     26  C23       20.9670   31.1770   14.8520 C.ar  203  INH203      0.0340
     27  C28       21.1460   29.8180   14.6930 C.ar  203  INH203      0.0530
     28  C27       21.3690   29.3080   13.4190 C.ar  203  INH203      0.0660
     29  C26       21.4180   30.1360   12.2970 C.ar  203  INH203      0.0360
     30  C25       21.2480   31.5030   12.4560 C.ar  203  INH203      0.0040
     31  C24       21.0380   32.0190   13.7350 C.ar  203  INH203      0.0170
     32  O5        21.5260   27.9730   13.2640 O.3   203  INH203     -0.3610
     33  H30       20.7190   27.5290   13.5030 H     203  INH203      0.2170
     34  C15       17.8240   30.9530   15.8150 C.3   203  INH203      0.0660
     35  C16       17.8070   30.0760   14.5710 C.ar  203  INH203     -0.0560
     36  C21       17.8870   28.6920   14.6630 C.ar  203  INH203      0.0070
     37  C20       17.8490   27.9030   13.5110 C.ar  203  INH203      0.0010
     38  C19       17.7380   28.5000   12.2600 C.ar  203  INH203      0.0000
     39  C18       17.6530   29.8840   12.1620 C.ar  203  INH203      0.0010
     40  C17       17.6920   30.6660   13.3060 C.ar  203  INH203      0.0070
     41  O3        18.0920   34.7060   15.1370 O.3   203  INH203     -0.3920
     42  H17       17.4000   35.2550   14.7890 H     203  INH203      0.2100
@<TRIPOS>BOND
     1    39    38   ar
     2    39    40   ar
     3    38    37   ar
     4    29    30   ar
     5    29    28   ar
     6    30    31   ar
     7    32    28    1
     8    32    33    1
     9    40    35   ar
    10    28    27   ar
    11    37    36   ar
    12    31    26   ar
    13    35    36   ar
    14    35    34    1
    15    27    26   ar
    16    42    41    1
    17    26    24    1
    18    41     1    1
    19    21     1    1
    20    21    34    1
    21    21    22    1
    22     1     2    1
    23    24    22   am
    24    24    25    2
    25    22    23    1
    26     5     4    2
    27     8     9   ar
    28     8     7   ar
    29     2     3    1
    30     9    10   ar
    31     3     4    1
    32     3    17    1
    33    19    18    1
    34     4     7    1
    35     4     6    2
    36    16    12    1
    37    18    17    1
    38    18    20    1
    39     7    13   ar
    40    10    12    1
    41    10    11   ar
    42    12    15    1
    43    13    11   ar
    44    11    14    1
    45    15    14    1
