@<TRIPOS>MOLECULE
./ligand/3cd0_lig.pdb
 67 69 0 0 0
SMALL
GASTEIGER

@<TRIPOS>ATOM
      1  N1       -16.1280    8.7000   46.7900 N.ar  1665  INH1665    -0.2231
      2  C1       -14.4560    4.5470   46.1250 C.3   1665  INH1665    -0.0444
      3  C2       -14.9230    8.8700   46.2630 C.ar  1665  INH1665     0.0928
      4  C3       -15.6270    5.3170   45.5060 C.3   1665  INH1665     0.0307
      5  C4       -13.1780    7.3070   44.8950 C.3   1665  INH1665    -0.0078
      6  C5       -13.2060    8.0730   43.5600 C.3   1665  INH1665    -0.0214
      7  C6       -12.8690    8.0730   41.0680 C.3   1665  INH1665    -0.0002
      8  C7       -15.7680    5.1400   43.9920 C.3   1665  INH1665    -0.0444
      9  C8       -12.0780   11.3160   46.7780 C.ar  1665  INH1665    -0.0258
     10  C9       -18.8260    5.1000   49.7920 C.ar  1665  INH1665    -0.0544
     11  C10      -19.0940    3.8760   50.4150 C.ar  1665  INH1665    -0.0261
     12  C11      -14.6660   11.2620   45.7490 C.ar  1665  INH1665    -0.0498
     13  C12      -13.9340   12.4470   45.7380 C.ar  1665  INH1665    -0.0258
     14  C13      -21.1790    5.4110   49.3880 C.ar  1665  INH1665    -0.0544
     15  F1       -20.6970    2.2490   51.1220 F     1665  INH1665    -0.2055
     16  C14      -20.4110    3.4230   50.5250 C.ar  1665  INH1665     0.1234
     17  C15      -21.4510    4.1920   50.0100 C.ar  1665  INH1665    -0.0261
     18  C16      -19.8740    5.8710   49.2730 C.ar  1665  INH1665    -0.0301
     19  C17      -19.6540    7.2060   48.5850 C.3   1665  INH1665     0.0372
     20  N2       -18.2730    7.3900   48.1680 N.am  1665  INH1665    -0.3047
     21  C18      -17.7930    6.8960   47.0300 C.2   1665  INH1665     0.2799
     22  O1       -18.4980    6.2750   46.2410 O.2   1665  INH1665    -0.2668
     23  C19      -16.4820    7.4220   46.5630 C.ar  1665  INH1665     0.1975
     24  N3       -15.5140    6.7560   45.8830 N.ar  1665  INH1665    -0.3208
     25  C20      -14.4760    7.5920   45.6440 C.ar  1665  INH1665     0.0470
     26  C21      -14.0980   10.1000   46.2500 C.ar  1665  INH1665     0.0023
     27  C22      -12.6430   12.4790   46.2530 C.ar  1665  INH1665     0.1234
     28  F2       -11.9460   13.6340   46.2380 F     1665  INH1665    -0.2055
     29  C23      -12.8130   10.1290   46.7880 C.ar  1665  INH1665    -0.0498
     30  C24      -12.3110    7.5730   42.4030 C.3   1665  INH1665     0.0579
     31  O2       -12.2300    6.1510   42.3100 O.3   1665  INH1665    -0.3917
     32  C25      -12.9330    9.5980   40.9680 C.3   1665  INH1665     0.0678
     33  O3       -11.6480   10.1290   41.2900 O.3   1665  INH1665    -0.3912
     34  C26      -13.3870   10.0030   39.5590 C.3   1665  INH1665     0.0752
     35  C27      -13.8450   11.4480   39.4660 C.2   1665  INH1665     0.3585
     36  O4       -13.1210   12.3030   38.9630 O.co2 1665  INH1665    -0.2463
     37  O5       -15.0490   11.8200   39.9100 O.co2 1665  INH1665    -0.2463
     38  H1       -14.5310    3.4840   45.8520 H     1665  INH1665     0.0249
     39  H2       -14.4890    4.6480   47.2200 H     1665  INH1665     0.0249
     40  H3       -13.5070    4.9560   45.7470 H     1665  INH1665     0.0249
     41  H4       -16.5500    4.9240   45.9570 H     1665  INH1665     0.0523
     42  H5       -12.3210    7.6420   45.4970 H     1665  INH1665     0.0329
     43  H6       -13.0900    6.2280   44.7020 H     1665  INH1665     0.0329
     44  H7       -14.2450    8.0560   43.1980 H     1665  INH1665     0.0294
     45  H8       -12.9100    9.1100   43.7750 H     1665  INH1665     0.0294
     46  H9       -12.2260    7.6970   40.2590 H     1665  INH1665     0.0315
     47  H10      -13.8860    7.6730   40.9440 H     1665  INH1665     0.0315
     48  H11      -15.8480    4.0690   43.7540 H     1665  INH1665     0.0249
     49  H12      -14.8850    5.5620   43.4900 H     1665  INH1665     0.0249
     50  H13      -16.6720    5.6620   43.6440 H     1665  INH1665     0.0249
     51  H14      -11.0700   11.3340   47.1770 H     1665  INH1665     0.0646
     52  H15      -17.8040    5.4530   49.7110 H     1665  INH1665     0.0622
     53  H16      -18.2800    3.2800   50.8120 H     1665  INH1665     0.0646
     54  H17      -15.6800   11.2480   45.3660 H     1665  INH1665     0.0625
     55  H18      -14.3730   13.3490   45.3260 H     1665  INH1665     0.0646
     56  H19      -21.9940    6.0050   48.9910 H     1665  INH1665     0.0622
     57  H20      -22.4740    3.8430   50.0920 H     1665  INH1665     0.0646
     58  H21      -20.3020    7.2580   47.6970 H     1665  INH1665     0.0512
     59  H22      -19.9230    8.0120   49.2830 H     1665  INH1665     0.0512
     60  H23      -17.6590    7.9100   48.7620 H     1665  INH1665     0.1494
     61  H24      -12.3840    9.2300   47.2150 H     1665  INH1665     0.0625
     62  H25      -11.2980    7.9760   42.5540 H     1665  INH1665     0.0594
     63  H26      -11.8610    5.8020   43.1130 H     1665  INH1665     0.2098
     64  H27      -13.6650    9.9790   41.6950 H     1665  INH1665     0.0599
     65  H28      -11.0070    9.8060   40.6680 H     1665  INH1665     0.2098
     66  H29      -12.5450    9.8590   38.8660 H     1665  INH1665     0.0404
     67  H30      -14.2220    9.3520   39.2610 H     1665  INH1665     0.0404
@<TRIPOS>BOND
     1    66    34    1
     2    36    35   ar
     3    67    34    1
     4    35    34    1
     5    35    37   ar
     6    34    32    1
     7    46     7    1
     8    65    33    1
     9    47     7    1
    10    32     7    1
    11    32    33    1
    12    32    64    1
    13     7    30    1
    14    31    30    1
    15    31    63    1
    16    30    62    1
    17    30     6    1
    18    44     6    1
    19    49     8    1
    20     6    45    1
    21     6     5    1
    22    50     8    1
    23    48     8    1
    24     8     4    1
    25    43     5    1
    26     5    42    1
    27     5    25    1
    28    55    13    1
    29    54    12    1
    30     4    24    1
    31     4    41    1
    32     4     2    1
    33    25    24   ar
    34    25     3   ar
    35    13    12   ar
    36    13    27   ar
    37    40     2    1
    38    12    26   ar
    39    38     2    1
    40    24    23   ar
    41     2    39    1
    42    28    27    1
    43    22    21    2
    44    26     3    1
    45    26    29   ar
    46    27     9   ar
    47     3     1   ar
    48    23     1   ar
    49    23    21    1
    50     9    29   ar
    51     9    51    1
    52    29    61    1
    53    21    20   am
    54    58    19    1
    55    20    19    1
    56    20    60    1
    57    19    18    1
    58    19    59    1
    59    56    14    1
    60    18    14   ar
    61    18    10   ar
    62    14    17   ar
    63    52    10    1
    64    10    11   ar
    65    17    57    1
    66    17    16   ar
    67    11    16   ar
    68    11    53    1
    69    16    15    1
