@<TRIPOS>MOLECULE
/tmp/ewbell/vina_3cd0_3cd0_lig/vina/vina4.pdbqt
 42 44 0 0 0
SMALL
GASTEIGER

@<TRIPOS>ATOM
      1  N1       -15.6240    6.1320   47.1430 N.pl3 1665  INH1665    -0.3350
      2  H1       -15.7080    5.1450   46.9010 H     1665  INH1665     0.1680
      3  C2       -16.5450    6.8780   47.7390 C.2   1665  INH1665     0.0670
      4  C19      -14.5590    6.9220   46.9190 C.3   1665  INH1665     0.1780
      5  N3       -14.7820    8.1860   47.3610 N.pl3 1665  INH1665    -0.3260
      6  C20      -16.0210    8.2620   47.9020 C.2   1665  INH1665     0.0410
      7  C4       -16.7240    9.4750   48.5030 C.3   1665  INH1665     0.0620
      8  C5       -16.6750    9.3570   50.0380 C.3   1665  INH1665     0.0380
      9  C24      -17.9810    9.5700   50.8360 C.3   1665  INH1665     0.1200
     10  C6       -18.4110    8.2490   51.4800 C.3   1665  INH1665     0.0640
     11  C25      -19.5520    8.4050   52.4860 C.3   1665  INH1665     0.1300
     12  C26      -20.7660    7.5910   52.0170 C.3   1665  INH1665     0.1410
     13  C27      -21.8930    8.4510   51.4710 C.2   1665  INH1665     0.1410
     14  O4       -22.8420    8.7650   52.1830 O.2   1665  INH1665    -0.6500
     15  O5       -21.8700    8.8990   50.2120 O.3   1665  INH1665    -0.7760
     16  H        -21.9180    8.2940   49.4980 H     1665  INH1665     0.1670
     17  O3       -19.8560    9.7920   52.6180 O.3   1665  INH1665    -0.3950
     18  H28      -20.7420    9.8930   52.9480 H     1665  INH1665     0.2100
     19  O2       -19.0780   10.0180   50.0400 O.3   1665  INH1665    -0.3950
     20  H26      -19.7750    9.3720   50.0700 H     1665  INH1665     0.2100
     21  C21      -17.8950    6.4720   48.1930 C.ar  1665  INH1665    -0.0070
     22  C11      -18.9920    7.1160   47.6380 C.ar  1665  INH1665     0.0170
     23  C12      -20.2800    6.7500   48.0190 C.ar  1665  INH1665     0.0430
     24  C22      -20.4770    5.7230   48.9340 C.ar  1665  INH1665     0.1160
     25  C8       -19.3760    5.0590   49.4760 C.ar  1665  INH1665     0.0430
     26  F2       -21.7310    5.3780   49.2920 F     1665  INH1665    -0.2060
     27  C23      -18.0840    5.4260   49.0940 C.ar  1665  INH1665     0.0170
     28  C3       -13.7680    9.2760   47.2580 C.3   1665  INH1665     0.0830
     29  C1       -13.1860    9.5480   48.6490 C.3   1665  INH1665     0.0320
     30  C7       -14.3380   10.5130   46.5600 C.3   1665  INH1665     0.0320
     31  C18      -13.3370    6.3910   46.2570 C.2   1665  INH1665     0.2860
     32  N2       -13.2020    6.6260   44.9550 N.am  1665  INH1665    -0.3500
     33  H23      -12.3060    6.4940   44.5340 H     1665  INH1665     0.1630
     34  O1       -12.3950    6.0300   46.9540 O.2   1665  INH1665    -0.2640
     35  C17      -14.3060    7.0700   44.1180 C.3   1665  INH1665     0.1610
     36  C16      -13.8570    8.0330   43.0360 C.ar  1665  INH1665    -0.0400
     37  C9       -13.7160    9.4100   43.2520 C.ar  1665  INH1665     0.0120
     38  C10      -13.2990   10.2480   42.2120 C.ar  1665  INH1665     0.0430
     39  C14      -13.0150    9.7100   40.9540 C.ar  1665  INH1665     0.1160
     40  F1       -12.6080   10.4940   39.9360 F     1665  INH1665    -0.2060
     41  C15      -13.1540    8.3410   40.7420 C.ar  1665  INH1665     0.0430
     42  C13      -13.5720    7.5100   41.7810 C.ar  1665  INH1665     0.0120
@<TRIPOS>BOND
     1    40    39    1
     2    41    39   ar
     3    41    42   ar
     4    39    38   ar
     5    42    36   ar
     6    38    37   ar
     7    36    37   ar
     8    36    35    1
     9    35    32    1
    10    33    32    1
    11    32    31   am
    12    31     4    1
    13    31    34    2
    14    30    28    1
    15     2     1    1
    16     4     1    1
    17     4     5    1
    18     1     3    1
    19    28     5    1
    20    28    29    1
    21     5     6    1
    22    22    23   ar
    23    22    21   ar
    24     3     6    2
    25     3    21    1
    26     6     7    1
    27    23    24   ar
    28    21    27   ar
    29     7     8    1
    30    24    26    1
    31    24    25   ar
    32    27    25   ar
    33    16    15    1
    34     8     9    1
    35    19    20    1
    36    19     9    1
    37    15    13    1
    38     9    10    1
    39    13    12    1
    40    13    14    2
    41    10    11    1
    42    12    11    1
    43    11    17    1
    44    17    18    1
