@<TRIPOS>MOLECULE
/tmp/ewbell/vina_3cd0_3cd0_lig/vina/vina5.pdbqt
 42 44 0 0 0
SMALL
GASTEIGER

@<TRIPOS>ATOM
      1  N1       -11.2140    7.2490   48.4100 N.pl3 1665  INH1665    -0.3350
      2  H1       -10.9620    6.7200   49.2450 H     1665  INH1665     0.1680
      3  C2       -10.6400    7.1590   47.2180 C.2   1665  INH1665     0.0670
      4  C19      -12.1900    8.1690   48.3100 C.3   1665  INH1665     0.1780
      5  N3       -12.2540    8.6860   47.0560 N.pl3 1665  INH1665    -0.3260
      6  C20      -11.3060    8.1060   46.2820 C.2   1665  INH1665     0.0410
      7  C4       -10.9760    8.3790   44.8180 C.3   1665  INH1665     0.0620
      8  C5       -12.0120    7.6520   43.9410 C.3   1665  INH1665     0.0380
      9  C24      -11.7420    7.5360   42.4230 C.3   1665  INH1665     0.1200
     10  C6       -12.7840    8.3510   41.6520 C.3   1665  INH1665     0.0640
     11  C25      -12.6150    9.8620   41.8130 C.3   1665  INH1665     0.1300
     12  C26      -13.9840   10.5080   42.0710 C.3   1665  INH1665     0.1410
     13  C27      -14.6240   11.0830   40.8190 C.2   1665  INH1665     0.1410
     14  O4       -15.2490   12.1380   40.8640 O.2   1665  INH1665    -0.6500
     15  O5       -14.5080   10.4660   39.6400 O.3   1665  INH1665    -0.7760
     16  H        -13.9430   10.8170   38.9810 H     1665  INH1665     0.1670
     17  O3       -11.9930   10.3780   40.6380 O.3   1665  INH1665    -0.3950
     18  H28      -11.3650   11.0490   40.8800 H     1665  INH1665     0.2100
     19  O2       -11.8110    6.2000   41.9250 O.3   1665  INH1665    -0.3950
     20  H26      -10.9840    5.9710   41.5180 H     1665  INH1665     0.2100
     21  C21       -9.5150    6.2860   46.8100 C.ar  1665  INH1665    -0.0070
     22  C11       -8.5620    6.8080   45.9480 C.ar  1665  INH1665     0.0170
     23  C12       -7.4760    6.0300   45.5560 C.ar  1665  INH1665     0.0430
     24  C22       -7.3250    4.7380   46.0460 C.ar  1665  INH1665     0.1160
     25  C8        -8.2700    4.2180   46.9310 C.ar  1665  INH1665     0.0430
     26  F2        -6.2670    3.9950   45.6600 F     1665  INH1665    -0.2060
     27  C23       -9.3600    5.0000   47.3230 C.ar  1665  INH1665     0.0170
     28  C3       -13.2530    9.7170   46.6510 C.3   1665  INH1665     0.0830
     29  C1       -14.3540    9.0450   45.8240 C.3   1665  INH1665     0.0320
     30  C7       -12.5850   10.9090   45.9600 C.3   1665  INH1665     0.0320
     31  C18      -13.0390    8.5150   49.4820 C.2   1665  INH1665     0.2860
     32  N2       -13.9510    7.6220   49.8540 N.am  1665  INH1665    -0.3500
     33  H23      -14.3700    7.7110   50.7570 H     1665  INH1665     0.1630
     34  O1       -12.6900    9.4340   50.2160 O.2   1665  INH1665    -0.2640
     35  C17      -14.3650    6.5170   49.0020 C.3   1665  INH1665     0.1610
     36  C16      -15.6640    6.8080   48.2740 C.ar  1665  INH1665    -0.0400
     37  C9       -16.5460    7.8220   48.6650 C.ar  1665  INH1665     0.0120
     38  C10      -17.7310    8.0400   47.9530 C.ar  1665  INH1665     0.0430
     39  C14      -18.0320    7.2480   46.8420 C.ar  1665  INH1665     0.1160
     40  F1       -19.1650    7.4380   46.1360 F     1665  INH1665    -0.2060
     41  C15      -17.1520    6.2410   46.4530 C.ar  1665  INH1665     0.0430
     42  C13      -15.9740    6.0260   47.1680 C.ar  1665  INH1665     0.0120
@<TRIPOS>BOND
     1    16    15    1
     2    15    13    1
     3    17    18    1
     4    17    11    1
     5    13    14    2
     6    13    12    1
     7    20    19    1
     8    10    11    1
     9    10     9    1
    10    11    12    1
    11    19     9    1
    12     9     8    1
    13     8     7    1
    14     7     6    1
    15    23    22   ar
    16    23    24   ar
    17    26    24    1
    18    29    28    1
    19    22    21   ar
    20    30    28    1
    21    24    25   ar
    22    40    39    1
    23     6     5    1
    24     6     3    2
    25    41    39   ar
    26    41    42   ar
    27    28     5    1
    28    21     3    1
    29    21    27   ar
    30    39    38   ar
    31    25    27   ar
    32     5     4    1
    33    42    36   ar
    34     3     1    1
    35    38    37   ar
    36    36    37   ar
    37    36    35    1
    38     4     1    1
    39     4    31    1
    40     1     2    1
    41    35    32    1
    42    31    32   am
    43    31    34    2
    44    32    33    1
