@<TRIPOS>MOLECULE
/tmp/ewbell/vina_3cd0_3cd0_lig/vina/vina3.pdbqt
 42 44 0 0 0
SMALL
GASTEIGER

@<TRIPOS>ATOM
      1  N1       -15.2800   10.5770   46.4700 N.pl3 1665  INH1665    -0.3350
      2  H1       -16.0880   10.9160   45.9480 H     1665  INH1665     0.1680
      3  C2       -15.3050    9.8070   47.5490 C.2   1665  INH1665     0.0670
      4  C19      -13.9870   10.8280   46.1930 C.3   1665  INH1665     0.1780
      5  N3       -13.1660   10.2280   47.0920 N.pl3 1665  INH1665    -0.3260
      6  C20      -13.9100    9.5510   47.9990 C.2   1665  INH1665     0.0410
      7  C4       -13.4380    8.7480   49.2070 C.3   1665  INH1665     0.0620
      8  C5       -13.9170    7.2940   49.0440 C.3   1665  INH1665     0.0380
      9  C24      -13.1590    6.3730   48.0590 C.3   1665  INH1665     0.1200
     10  C6       -14.1320    5.8370   47.0060 C.3   1665  INH1665     0.0640
     11  C25      -14.1630    6.6710   45.7240 C.3   1665  INH1665     0.1300
     12  C26      -15.5220    6.5020   45.0330 C.3   1665  INH1665     0.1410
     13  C27      -15.6070    5.2560   44.1680 C.2   1665  INH1665     0.1410
     14  O4       -16.1940    4.2550   44.5680 O.2   1665  INH1665    -0.6500
     15  O5       -15.0620    5.2260   42.9480 O.3   1665  INH1665    -0.7760
     16  H        -14.4730    5.9040   42.6800 H     1665  INH1665     0.1670
     17  O3       -13.0820    6.2620   44.8890 O.3   1665  INH1665    -0.3950
     18  H28      -13.4160    6.0260   44.0310 H     1665  INH1665     0.2100
     19  O2       -12.5550    5.2390   48.6790 O.3   1665  INH1665    -0.3950
     20  H26      -12.3160    4.6050   48.0130 H     1665  INH1665     0.2100
     21  C21      -16.4880    9.2570   48.2500 C.ar  1665  INH1665    -0.0070
     22  C11      -16.9620    9.9350   49.3640 C.ar  1665  INH1665     0.0170
     23  C12      -18.0850    9.4660   50.0400 C.ar  1665  INH1665     0.0430
     24  C22      -18.7540    8.3340   49.5890 C.ar  1665  INH1665     0.1160
     25  C8       -18.2930    7.6640   48.4560 C.ar  1665  INH1665     0.0430
     26  F2       -19.8420    7.8910   50.2530 F     1665  INH1665    -0.2060
     27  C23      -17.1660    8.1350   47.7780 C.ar  1665  INH1665     0.0170
     28  C3       -11.6790   10.3210   47.0250 C.3   1665  INH1665     0.0830
     29  C1       -11.1150    8.9660   46.5850 C.3   1665  INH1665     0.0320
     30  C7       -11.0860   10.8560   48.3310 C.3   1665  INH1665     0.0320
     31  C18      -13.6030   11.6730   45.0300 C.2   1665  INH1665     0.2860
     32  N2       -13.6830   11.1170   43.8240 N.am  1665  INH1665    -0.3500
     33  H23      -13.6610   11.7100   43.0200 H     1665  INH1665     0.1630
     34  O1       -13.5140   12.8870   45.1830 O.2   1665  INH1665    -0.2640
     35  C17      -13.8040    9.6800   43.6270 C.3   1665  INH1665     0.1610
     36  C16      -13.4990    9.2680   42.1990 C.ar  1665  INH1665    -0.0400
     37  C9       -13.1080    7.9700   41.8480 C.ar  1665  INH1665     0.0120
     38  C10      -12.8380    7.6520   40.5120 C.ar  1665  INH1665     0.0430
     39  C14      -12.9670    8.6300   39.5230 C.ar  1665  INH1665     0.1160
     40  F1       -12.7170    8.3490   38.2290 F     1665  INH1665    -0.2060
     41  C15      -13.3590    9.9190   39.8740 C.ar  1665  INH1665     0.0430
     42  C13      -13.6240   10.2320   41.2070 C.ar  1665  INH1665     0.0120
@<TRIPOS>BOND
     1    40    39    1
     2    39    41   ar
     3    39    38   ar
     4    41    42   ar
     5    38    37   ar
     6    42    36   ar
     7    37    36   ar
     8    36    35    1
     9    16    15    1
    10    15    13    1
    11    33    32    1
    12    35    32    1
    13    32    31   am
    14    18    17    1
    15    13    14    2
    16    13    12    1
    17    17    11    1
    18    31    34    2
    19    31     4    1
    20    12    11    1
    21    11    10    1
    22     2     1    1
    23     4     1    1
    24     4     5    1
    25     1     3    1
    26    29    28    1
    27    10     9    1
    28    28     5    1
    29    28    30    1
    30     5     6    1
    31     3     6    2
    32     3    21    1
    33    27    21   ar
    34    27    25   ar
    35     6     7    1
    36    20    19    1
    37     9    19    1
    38     9     8    1
    39    21    22   ar
    40    25    24   ar
    41     8     7    1
    42    22    23   ar
    43    24    23   ar
    44    24    26    1
