@<TRIPOS>MOLECULE
/tmp/ewbell/vina_3cd0_3cd0_lig/vina/vina1.pdbqt
 42 44 0 0 0
SMALL
GASTEIGER

@<TRIPOS>ATOM
      1  N1       -14.2290    8.5120   47.5190 N.pl3 1665  INH1665    -0.3350
      2  H1       -13.6820    9.2670   47.9330 H     1665  INH1665     0.1680
      3  C2       -15.4100    8.0740   47.9340 C.2   1665  INH1665     0.0670
      4  C19      -13.8870    7.7720   46.4480 C.3   1665  INH1665     0.1780
      5  N3       -14.8390    6.8470   46.1650 N.pl3 1665  INH1665    -0.3260
      6  C20      -15.8530    6.9580   47.0550 C.2   1665  INH1665     0.0410
      7  C4       -17.1260    6.1230   47.1550 C.3   1665  INH1665     0.0620
      8  C5       -18.3150    6.9900   46.7040 C.3   1665  INH1665     0.0380
      9  C24      -19.5300    7.1270   47.6510 C.3   1665  INH1665     0.1200
     10  C6       -19.2720    6.3350   48.9350 C.3   1665  INH1665     0.0640
     11  C25      -20.1840    6.7410   50.0940 C.3   1665  INH1665     0.1300
     12  C26      -20.7280    5.4820   50.7850 C.3   1665  INH1665     0.1410
     13  C27      -21.1360    4.3900   49.8120 C.2   1665  INH1665     0.1410
     14  O4       -20.6580    3.2630   49.9010 O.2   1665  INH1665    -0.6500
     15  O5       -22.0350    4.6230   48.8520 O.3   1665  INH1665    -0.7760
     16  H        -21.8330    4.4170   47.9610 H     1665  INH1665     0.1670
     17  O3       -21.2290    7.5650   49.5830 O.3   1665  INH1665    -0.3950
     18  H28      -20.9310    8.4670   49.5410 H     1665  INH1665     0.2100
     19  O2       -20.7500    6.6320   47.0990 O.3   1665  INH1665    -0.3950
     20  H26      -21.3000    6.2970   47.7980 H     1665  INH1665     0.2100
     21  C21      -16.2140    8.5640   49.0770 C.ar  1665  INH1665    -0.0070
     22  C11      -17.0260    9.6710   48.8790 C.ar  1665  INH1665     0.0170
     23  C12      -17.8150   10.1510   49.9210 C.ar  1665  INH1665     0.0430
     24  C22      -17.8160    9.5100   51.1540 C.ar  1665  INH1665     0.1160
     25  C8       -17.0170    8.3830   51.3490 C.ar  1665  INH1665     0.0430
     26  F2       -18.5880    9.9850   52.1540 F     1665  INH1665    -0.2060
     27  C23      -16.2250    7.9020   50.3040 C.ar  1665  INH1665     0.0170
     28  C3       -14.7350    5.8960   45.0200 C.3   1665  INH1665     0.0830
     29  C1       -15.8390    6.2140   44.0070 C.3   1665  INH1665     0.0320
     30  C7       -14.7150    4.4410   45.4950 C.3   1665  INH1665     0.0320
     31  C18      -12.6030    8.0070   45.7340 C.2   1665  INH1665     0.2860
     32  N2       -12.4870    9.1440   45.0540 N.am  1665  INH1665    -0.3500
     33  H23      -11.5780    9.4390   44.7630 H     1665  INH1665     0.1630
     34  O1       -11.6300    7.3180   46.0210 O.2   1665  INH1665    -0.2640
     35  C17      -13.6300    9.9800   44.7180 C.3   1665  INH1665     0.1610
     36  C16      -13.7090   10.2750   43.2320 C.ar  1665  INH1665    -0.0400
     37  C9       -12.9350    9.6020   42.2790 C.ar  1665  INH1665     0.0120
     38  C10      -13.0530    9.9220   40.9220 C.ar  1665  INH1665     0.0430
     39  C14      -13.9510   10.9110   40.5140 C.ar  1665  INH1665     0.1160
     40  F1       -14.0860   11.2360   39.2130 F     1665  INH1665    -0.2060
     41  C15      -14.7220   11.5780   41.4630 C.ar  1665  INH1665     0.0430
     42  C13      -14.6000   11.2570   42.8150 C.ar  1665  INH1665     0.0120
@<TRIPOS>BOND
     1    40    39    1
     2    39    38   ar
     3    39    41   ar
     4    38    37   ar
     5    41    42   ar
     6    37    36   ar
     7    42    36   ar
     8    36    35    1
     9    29    28    1
    10    35    32    1
    11    33    32    1
    12    28    30    1
    13    28     5    1
    14    32    31   am
    15    31    34    2
    16    31     4    1
    17     5     4    1
    18     5     6    1
    19     4     1    1
    20     8     7    1
    21     8     9    1
    22     6     7    1
    23     6     3    2
    24    19     9    1
    25    19    20    1
    26     1     2    1
    27     1     3    1
    28     9    10    1
    29     3    21    1
    30    16    15    1
    31    15    13    1
    32    22    21   ar
    33    22    23   ar
    34    10    11    1
    35    21    27   ar
    36    18    17    1
    37    17    11    1
    38    13    14    2
    39    13    12    1
    40    23    24   ar
    41    11    12    1
    42    27    25   ar
    43    24    25   ar
    44    24    26    1
