@<TRIPOS>MOLECULE
/tmp/ewbell/vina_3cd0_3cd0_lig/vina/vina2.pdbqt
 42 44 0 0 0
SMALL
GASTEIGER

@<TRIPOS>ATOM
      1  N1       -16.2620    8.5370   46.9670 N.pl3 1665  INH1665    -0.3350
      2  H1       -16.7600    9.2540   47.4950 H     1665  INH1665     0.1680
      3  C2       -15.0920    8.6770   46.3590 C.2   1665  INH1665     0.0670
      4  C19      -16.6690    7.2720   46.7560 C.3   1665  INH1665     0.1780
      5  N3       -15.7700    6.5840   46.0060 N.pl3 1665  INH1665    -0.3260
      6  C20      -14.7270    7.3920   45.7010 C.2   1665  INH1665     0.0410
      7  C4       -13.4930    7.0760   44.8620 C.3   1665  INH1665     0.0620
      8  C5       -13.8720    7.1890   43.3750 C.3   1665  INH1665     0.0380
      9  C24      -12.7590    7.5190   42.3530 C.3   1665  INH1665     0.1200
     10  C6       -13.3910    7.9840   41.0380 C.3   1665  INH1665     0.0640
     11  C25      -12.6810    9.1860   40.4130 C.3   1665  INH1665     0.1300
     12  C26      -13.4510   10.4700   40.7520 C.3   1665  INH1665     0.1410
     13  C27      -13.7700   11.3200   39.5340 C.2   1665  INH1665     0.1410
     14  O4       -12.9110   12.0330   39.0260 O.2   1665  INH1665    -0.6500
     15  O5       -14.9850   11.2970   38.9780 O.3   1665  INH1665    -0.7760
     16  H        -15.0770   11.1500   38.0580 H     1665  INH1665     0.1670
     17  O3       -12.5840    8.9760   39.0060 O.3   1665  INH1665    -0.3950
     18  H28      -12.5380    8.0430   38.8270 H     1665  INH1665     0.2100
     19  O2       -11.9180    6.4090   42.0380 O.3   1665  INH1665    -0.3950
     20  H26      -11.2890    6.2810   42.7380 H     1665  INH1665     0.2100
     21  C21      -14.2340    9.8830   46.2970 C.ar  1665  INH1665    -0.0070
     22  C11      -14.6200   10.9170   45.4570 C.ar  1665  INH1665     0.0170
     23  C12      -13.8550   12.0780   45.3850 C.ar  1665  INH1665     0.0430
     24  C22      -12.7180   12.2200   46.1710 C.ar  1665  INH1665     0.1160
     25  C8       -12.3400   11.1890   47.0330 C.ar  1665  INH1665     0.0430
     26  F2       -11.9870   13.3510   46.0930 F     1665  INH1665    -0.2060
     27  C23      -13.1080   10.0250   47.1050 C.ar  1665  INH1665     0.0170
     28  C3       -15.9510    5.1530   45.6280 C.3   1665  INH1665     0.0830
     29  C1       -14.6180    4.4190   45.8050 C.3   1665  INH1665     0.0320
     30  C7       -16.5690    5.0110   44.2340 C.3   1665  INH1665     0.0320
     31  C18      -17.9590    6.7800   47.3090 C.2   1665  INH1665     0.2860
     32  N2       -18.0570    6.6910   48.6330 N.am  1665  INH1665    -0.3500
     33  H23      -18.9630    6.5930   49.0420 H     1665  INH1665     0.1630
     34  O1       -18.9460    6.7560   46.5810 O.2   1665  INH1665    -0.2640
     35  C17      -16.8980    6.7330   49.5110 C.3   1665  INH1665     0.1610
     36  C16      -16.9740    7.8720   50.5110 C.ar  1665  INH1665    -0.0400
     37  C9       -16.6830    7.7120   51.8710 C.ar  1665  INH1665     0.0120
     38  C10      -16.7740    8.8020   52.7440 C.ar  1665  INH1665     0.0430
     39  C14      -17.1490   10.0560   52.2580 C.ar  1665  INH1665     0.1160
     40  F1       -17.2410   11.1230   53.0760 F     1665  INH1665    -0.2060
     41  C15      -17.4360   10.2140   50.9040 C.ar  1665  INH1665     0.0430
     42  C13      -17.3460    9.1240   50.0380 C.ar  1665  INH1665     0.0120
@<TRIPOS>BOND
     1    16    15    1
     2    18    17    1
     3    15    13    1
     4    17    11    1
     5    14    13    2
     6    13    12    1
     7    11    12    1
     8    11    10    1
     9    10     9    1
    10    19     9    1
    11    19    20    1
    12     9     8    1
    13     8     7    1
    14    30    28    1
    15     7     6    1
    16    23    22   ar
    17    23    24   ar
    18    22    21   ar
    19    28    29    1
    20    28     5    1
    21     6     5    1
    22     6     3    2
    23     5     4    1
    24    26    24    1
    25    24    25   ar
    26    21     3    1
    27    21    27   ar
    28     3     1    1
    29    34    31    2
    30     4     1    1
    31     4    31    1
    32     1     2    1
    33    25    27   ar
    34    31    32   am
    35    32    33    1
    36    32    35    1
    37    35    36    1
    38    42    36   ar
    39    42    41   ar
    40    36    37   ar
    41    41    39   ar
    42    37    38   ar
    43    39    38   ar
    44    39    40    1
