@<TRIPOS>MOLECULE
./ligand/1g2k_lig.pdb
 82 86 0 0 0
SMALL
GASTEIGER

@<TRIPOS>ATOM
      1  N1        11.3490   23.7090    5.9420 N.3   203  INH203     -0.1532
      2  S1        11.8060   22.2030    6.4460 S.O2  203  INH203      0.1009
      3  N2        13.4310   22.2920    6.2150 N.3   203  INH203     -0.1532
      4  C1        13.8510   22.2230    4.7960 C.3   203  INH203      0.0955
      5  C2        14.0220   23.6050    4.1440 C.3   203  INH203      0.1030
      6  C3        13.0480   24.6790    4.6150 C.3   203  INH203      0.1030
      7  C4        11.5560   24.3030    4.6100 C.3   203  INH203      0.0955
      8  C5        10.1700   24.1890    6.5190 C.3   203  INH203      0.0471
      9  C6         9.8920   25.4570    7.2180 C.ar  203  INH203     -0.0309
     10  C7         8.8250   26.2930    6.8150 C.ar  203  INH203     -0.0452
     11  C8         8.6000   27.5210    7.4900 C.ar  203  INH203      0.0370
     12  C9         9.4560   27.9140    8.5820 C.ar  203  INH203     -0.0496
     13  C10       10.5270   27.0760    8.9870 C.ar  203  INH203     -0.0607
     14  C11       10.7450   25.8490    8.3020 C.ar  203  INH203     -0.0572
     15  O1        11.2360   21.1560    5.5990 O.2   203  INH203     -0.1409
     16  O2        14.8540   20.3500    3.5600 O.3   203  INH203     -0.4903
     17  C12       15.8640   19.4590    3.2220 C.ar  203  INH203      0.1206
     18  C13       16.8400   19.0170    4.1900 C.ar  203  INH203     -0.0199
     19  C14       17.8750   18.0980    3.8300 C.ar  203  INH203     -0.0583
     20  C15       17.9430   17.6050    2.4890 C.ar  203  INH203     -0.0615
     21  C16       16.9850   18.0300    1.5170 C.ar  203  INH203     -0.0583
     22  C17       15.9540   18.9530    1.8850 C.ar  203  INH203     -0.0199
     23  C18       14.2710   22.8980    7.3060 C.3   203  INH203      0.0471
     24  C19       15.2130   22.0330    8.1100 C.ar  203  INH203     -0.0316
     25  C20       14.6980   21.1220    9.0830 C.ar  203  INH203     -0.0573
     26  C21       15.5880   20.2940    9.8420 C.ar  203  INH203     -0.0615
     27  C22       17.0050   20.3790    9.6260 C.ar  203  INH203     -0.0617
     28  C23       17.5310   21.2940    8.6530 C.ar  203  INH203     -0.0615
     29  C24       16.6340   22.1150    7.9010 C.ar  203  INH203     -0.0573
     30  O3        15.3200   24.1020    4.3950 O.3   203  INH203     -0.3874
     31  O4        13.2740   25.8320    3.8140 O.3   203  INH203     -0.3874
     32  C25       10.9130   23.4660    3.4700 C.3   203  INH203      0.1092
     33  O5         9.4720   23.5050    3.6580 O.3   203  INH203     -0.4903
     34  C26        8.6610   24.4010    3.0030 C.ar  203  INH203      0.1206
     35  C27        9.1160   25.7120    2.6050 C.ar  203  INH203     -0.0199
     36  C28        8.2440   26.6180    1.9330 C.ar  203  INH203     -0.0583
     37  C29        6.9000   26.2300    1.6530 C.ar  203  INH203     -0.0615
     38  C30        6.4320   24.9430    2.0370 C.ar  203  INH203     -0.0583
     39  C31        7.3130   24.0330    2.7070 C.ar  203  INH203     -0.0199
     40  O6        11.5840   22.1020    7.8880 O.2   203  INH203     -0.1409
     41  C32       15.0820   21.3320    4.6000 C.3   203  INH203      0.1092
     42  C33        7.4870   28.4170    7.0500 C.2   203  INH203      0.2438
     43  O7         7.6600   29.6620    7.0840 O.2   203  INH203     -0.2702
     44  N3         6.2900   27.8680    6.6330 N.am  203  INH203     -0.3144
     45  C34        5.2360   28.7840    6.2470 C.3   203  INH203      0.0004
     46  H1        13.0260   21.7330    4.2580 H     203  INH203      0.0541
     47  H2        13.8880   23.4760    3.0600 H     203  INH203      0.0637
     48  H3        13.3080   24.9210    5.6560 H     203  INH203      0.0637
     49  H4        11.0090   25.2570    4.5810 H     203  INH203      0.0541
     50  H5         9.9000   23.4160    7.2540 H     203  INH203      0.0493
     51  H6         9.4450   24.1780    5.6910 H     203  INH203      0.0493
     52  H7         8.1820   25.9970    5.9940 H     203  INH203      0.0628
     53  H8         9.2810   28.8530    9.0950 H     203  INH203      0.0625
     54  H9        11.1710   27.3680    9.8090 H     203  INH203      0.0618
     55  H10       11.5630   25.2040    8.6020 H     203  INH203      0.0621
     56  H11       16.7870   19.3880    5.2070 H     203  INH203      0.0654
     57  H12       18.6020   17.7780    4.5670 H     203  INH203      0.0619
     58  H13       18.7230   16.9070    2.2090 H     203  INH203      0.0618
     59  H14       17.0390   17.6540    0.5020 H     203  INH203      0.0619
     60  H15       15.2320   19.2730    1.1420 H     203  INH203      0.0654
     61  H16       13.5750   23.3580    8.0230 H     203  INH203      0.0493
     62  H17       14.8840   23.6810    6.8350 H     203  INH203      0.0493
     63  H18       13.6290   21.0570    9.2480 H     203  INH203      0.0621
     64  H19       15.1920   19.6040   10.5780 H     203  INH203      0.0618
     65  H20       17.6780   19.7510   10.1980 H     203  INH203      0.0618
     66  H21       18.6010   21.3620    8.4900 H     203  INH203      0.0618
     67  H22       17.0290   22.8070    7.1660 H     203  INH203      0.0621
     68  H23       15.9640   23.4620    4.1150 H     203  INH203      0.2100
     69  H24       13.0530   25.6380    2.9110 H     203  INH203      0.2100
     70  H25       11.2700   22.4270    3.5200 H     203  INH203      0.0714
     71  H26       11.1760   23.8980    2.4930 H     203  INH203      0.0714
     72  H27       10.1350   26.0120    2.8200 H     203  INH203      0.0654
     73  H28        8.6010   27.5980    1.6360 H     203  INH203      0.0619
     74  H29        6.2330   26.9180    1.1460 H     203  INH203      0.0618
     75  H30        5.4100   24.6510    1.8230 H     203  INH203      0.0619
     76  H31        6.9510   23.0520    2.9930 H     203  INH203      0.0654
     77  H32       15.3030   20.8110    5.5430 H     203  INH203      0.0714
     78  H33       15.9400   21.9610    4.3190 H     203  INH203      0.0714
     79  H34        6.1560   26.8780    6.5990 H     203  INH203      0.1487
     80  H35        4.3480   28.2120    5.9400 H     203  INH203      0.0426
     81  H36        5.5800   29.4060    5.4080 H     203  INH203      0.0426
     82  H37        4.9800   29.4290    7.1010 H     203  INH203      0.0426
@<TRIPOS>BOND
     1     1     2    1
     2     1     8    1
     3     1     7    1
     4     2     3    1
     5     2    40    2
     6     2    15    2
     7     3     4    1
     8     3    23    1
     9     4    41    1
    10     4    46    1
    11     4     5    1
    12     5     6    1
    13     5    47    1
    14     5    30    1
    15     6     7    1
    16     6    48    1
    17     6    31    1
    18     7    49    1
    19     7    32    1
    20     8    51    1
    21     8    50    1
    22     8     9    1
    23     9    14   ar
    24     9    10   ar
    25    10    52    1
    26    10    11   ar
    27    11    42    1
    28    11    12   ar
    29    12    53    1
    30    12    13   ar
    31    13    54    1
    32    13    14   ar
    33    14    55    1
    34    16    41    1
    35    16    17    1
    36    17    22   ar
    37    17    18   ar
    38    18    56    1
    39    18    19   ar
    40    19    57    1
    41    19    20   ar
    42    20    58    1
    43    20    21   ar
    44    21    59    1
    45    21    22   ar
    46    22    60    1
    47    23    62    1
    48    23    61    1
    49    23    24    1
    50    24    29   ar
    51    24    25   ar
    52    25    63    1
    53    25    26   ar
    54    26    64    1
    55    26    27   ar
    56    27    65    1
    57    27    28   ar
    58    28    66    1
    59    28    29   ar
    60    29    67    1
    61    30    68    1
    62    31    69    1
    63    32    71    1
    64    32    70    1
    65    32    33    1
    66    33    34    1
    67    34    39   ar
    68    34    35   ar
    69    35    72    1
    70    35    36   ar
    71    36    73    1
    72    36    37   ar
    73    37    74    1
    74    37    38   ar
    75    38    75    1
    76    38    39   ar
    77    39    76    1
    78    41    78    1
    79    41    77    1
    80    42    44   am
    81    42    43    2
    82    44    79    1
    83    44    45    1
    84    45    82    1
    85    45    81    1
    86    45    80    1
