@<TRIPOS>MOLECULE
/tmp/ewbell/vina_1g2k_1g2k_lig/vina/vina3.pdbqt
 48 52 0 0 0
SMALL
GASTEIGER

@<TRIPOS>ATOM
      1  N1         6.7520   27.4990    4.9170 N.3   203  INH203     -0.2810
      2  S1         5.2630   26.8040    4.7420 S.O2  203  INH203      0.3200
      3  N2         4.3480   27.8290    5.6440 N.3   203  INH203     -0.2810
      4  C1         4.5280   27.6800    7.1070 C.3   203  INH203      0.1530
      5  C2         5.5770   28.6400    7.6930 C.3   203  INH203      0.1740
      6  C3         6.7680   28.9410    6.7900 C.3   203  INH203      0.1740
      7  C4         7.4860   27.7280    6.1730 C.3   203  INH203      0.1530
      8  O1         5.2260   25.4600    5.3170 O.2   203  INH203     -0.1820
      9  O6         4.8330   26.9570    3.3530 O.2   203  INH203     -0.1820
     10  C5         7.6390   27.2610    3.8630 C.3   203  INH203      0.1760
     11  C6         8.4670   26.0800    3.5550 C.ar  203  INH203     -0.0390
     12  C11        7.8750   24.9900    2.8360 C.ar  203  INH203      0.0090
     13  C10        8.6440   23.8440    2.4960 C.ar  203  INH203      0.0020
     14  C9        10.0110   23.7920    2.8720 C.ar  203  INH203      0.0170
     15  C8        10.6080   24.8890    3.5930 C.ar  203  INH203      0.0320
     16  C7         9.8300   26.0270    3.9290 C.ar  203  INH203      0.0260
     17  C33       12.0540   24.8410    3.9680 C.2   203  INH203      0.2510
     18  N3        12.7070   23.6250    4.0270 N.am  203  INH203     -0.3610
     19  H34       12.2290   22.7690    3.8360 H     203  INH203      0.1620
     20  C34       14.1130   23.6400    4.3780 C.3   203  INH203      0.1490
     21  O7        12.6550   25.9200    4.2080 O.2   203  INH203     -0.2680
     22  C25        7.7410   26.4180    6.9700 C.3   203  INH203      0.2040
     23  O5         9.0560   26.5270    7.5800 O.3   203  INH203     -0.3490
     24  C26        9.9820   25.5110    7.5350 C.ar  203  INH203      0.0680
     25  C31        9.5310   24.1640    7.3830 C.ar  203  INH203      0.0370
     26  C30       10.4650   23.0790    7.3190 C.ar  203  INH203      0.0030
     27  C29       11.8600   23.3380    7.4130 C.ar  203  INH203      0.0000
     28  C28       12.3330   24.6750    7.5710 C.ar  203  INH203      0.0030
     29  C27       11.4020   25.7520    7.6280 C.ar  203  INH203      0.0370
     30  C18        3.8270   29.0790    4.9890 C.3   203  INH203      0.1760
     31  C19        2.3620   29.2040    4.6480 C.ar  203  INH203     -0.0400
     32  C24        1.4610   29.8820    5.5400 C.ar  203  INH203      0.0090
     33  C23        0.0710   29.9980    5.2270 C.ar  203  INH203      0.0010
     34  C22       -0.4280   29.4310    4.0070 C.ar  203  INH203      0.0000
     35  C21        0.4650   28.7550    3.1090 C.ar  203  INH203      0.0010
     36  C20        1.8570   28.6450    3.4320 C.ar  203  INH203      0.0090
     37  O4         7.6800   29.7280    7.5460 O.3   203  INH203     -0.3910
     38  H24        8.0640   30.3920    6.9860 H     203  INH203      0.2100
     39  C32        3.1960   27.7450    7.8630 C.3   203  INH203      0.2040
     40  O2         2.5130   26.4680    7.8260 O.3   203  INH203     -0.3490
     41  C12        1.4280   26.2930    6.9780 C.ar  203  INH203      0.0680
     42  C17        0.1400   26.7970    7.3520 C.ar  203  INH203      0.0370
     43  C16       -0.9930   26.6230    6.4950 C.ar  203  INH203      0.0030
     44  C15       -0.8470   25.9430    5.2460 C.ar  203  INH203      0.0000
     45  C14        0.4290   25.4320    4.8500 C.ar  203  INH203      0.0030
     46  C13        1.5550   25.6070    5.7130 C.ar  203  INH203      0.0370
     47  O3         4.9800   29.8830    7.9980 O.3   203  INH203     -0.3910
     48  H23        5.1800   30.5080    7.3100 H     203  INH203      0.2100
@<TRIPOS>BOND
     1    13    12   ar
     2    13    14   ar
     3    12    11   ar
     4    14    15   ar
     5    35    36   ar
     6    35    34   ar
     7     9     2    2
     8    36    31   ar
     9    11    10    1
    10    11    16   ar
    11    15    16   ar
    12    15    17    1
    13    19    18    1
    14    10     1    1
    15    17    18   am
    16    17    21    2
    17    34    33   ar
    18    18    20    1
    19    31    30    1
    20    31    32   ar
    21     2     1    1
    22     2     8    2
    23     2     3    1
    24    45    44   ar
    25    45    46   ar
    26     1     7    1
    27    30     3    1
    28    33    32   ar
    29    44    43   ar
    30     3     4    1
    31    46    41   ar
    32     7     6    1
    33     7    22    1
    34    43    42   ar
    35     6    37    1
    36     6     5    1
    37    22    23    1
    38    41    42   ar
    39    41    40    1
    40    38    37    1
    41     4     5    1
    42     4    39    1
    43    48    47    1
    44    26    25   ar
    45    26    27   ar
    46    25    24   ar
    47    27    28   ar
    48    24    23    1
    49    24    29   ar
    50    28    29   ar
    51     5    47    1
    52    40    39    1
