@<TRIPOS>MOLECULE
/tmp/ewbell/vina_1g2k_1g2k_lig/vina/vina1.pdbqt
 48 52 0 0 0
SMALL
GASTEIGER

@<TRIPOS>ATOM
      1  N1        10.3360   24.7790    4.6880 N.3   203  INH203     -0.2810
      2  S1        11.8680   24.8050    4.0700 S.O2  203  INH203      0.3200
      3  N2        12.5280   23.5200    4.8560 N.3   203  INH203     -0.2810
      4  C1        12.8270   23.7660    6.2860 C.3   203  INH203      0.1530
      5  C2        11.6920   23.3310    7.2280 C.3   203  INH203      0.1740
      6  C3        10.2800   23.5170    6.6860 C.3   203  INH203      0.1740
      7  C4         9.9440   24.9010    6.1030 C.3   203  INH203      0.1530
      8  O1        12.5750   26.0320    4.4350 O.2   203  INH203     -0.1820
      9  O6        11.8090   24.4550    2.6520 O.2   203  INH203     -0.1820
     10  C5         9.3570   25.3300    3.8560 C.3   203  INH203      0.1760
     11  C6         7.8870   25.3090    3.9610 C.ar  203  INH203     -0.0390
     12  C11        7.1770   24.1580    3.4860 C.ar  203  INH203      0.0090
     13  C10        5.7610   24.0860    3.5900 C.ar  203  INH203      0.0020
     14  C9         5.0550   25.1680    4.1780 C.ar  203  INH203      0.0170
     15  C8         5.7690   26.3250    4.6590 C.ar  203  INH203      0.0320
     16  C7         7.1820   26.3870    4.5470 C.ar  203  INH203      0.0260
     17  C33        5.0240   27.4530    5.2980 C.2   203  INH203      0.2510
     18  N3         4.2890   27.2250    6.4450 N.am  203  INH203     -0.3610
     19  H34        4.2310   26.3150    6.8530 H     203  INH203      0.1620
     20  C34        3.6030   28.3580    7.0320 C.3   203  INH203      0.1490
     21  O7         5.0980   28.5980    4.7830 O.2   203  INH203     -0.2680
     22  C25       10.4410   26.2210    6.7550 C.3   203  INH203      0.2040
     23  O5         9.9700   26.2330    8.1310 O.3   203  INH203     -0.3490
     24  C26        9.1280   27.2050    8.6190 C.ar  203  INH203      0.0680
     25  C31        8.0120   27.6190    7.8300 C.ar  203  INH203      0.0370
     26  C30        7.1040   28.6200    8.3070 C.ar  203  INH203      0.0030
     27  C29        7.3140   29.2160    9.5820 C.ar  203  INH203      0.0000
     28  C28        8.4250   28.8230   10.3850 C.ar  203  INH203      0.0030
     29  C27        9.3220   27.8230    9.9080 C.ar  203  INH203      0.0370
     30  C18       12.3270   22.1500    4.2680 C.3   203  INH203      0.1760
     31  C19       13.5100   21.2360    4.0510 C.ar  203  INH203     -0.0400
     32  C24       14.0180   20.4340    5.1310 C.ar  203  INH203      0.0090
     33  C23       15.1420   19.5720    4.9350 C.ar  203  INH203      0.0010
     34  C22       15.7660   19.5070    3.6450 C.ar  203  INH203      0.0000
     35  C21       15.2630   20.3020    2.5600 C.ar  203  INH203      0.0010
     36  C20       14.1350   21.1620    2.7670 C.ar  203  INH203      0.0090
     37  O4         9.3800   23.1870    7.7370 O.3   203  INH203     -0.3910
     38  H24        9.2690   23.9390    8.3060 H     203  INH203      0.2100
     39  C32       14.1820   23.1860    6.7010 C.3   203  INH203      0.2040
     40  O2        14.2190   22.9160    8.1240 O.3   203  INH203     -0.3490
     41  C12       15.1430   22.0100    8.6280 C.ar  203  INH203      0.0680
     42  C17       16.5110   22.0770    8.2090 C.ar  203  INH203      0.0370
     43  C16       17.4790   21.1490    8.7120 C.ar  203  INH203      0.0030
     44  C15       17.0840   20.1430    9.6470 C.ar  203  INH203      0.0000
     45  C14       15.7240   20.0570   10.0820 C.ar  203  INH203      0.0030
     46  C13       14.7640   20.9850    9.5710 C.ar  203  INH203      0.0370
     47  O3        11.8240   21.9610    7.5450 O.3   203  INH203     -0.3910
     48  H23       12.7370   21.7060    7.4760 H     203  INH203      0.2100
@<TRIPOS>BOND
     1    35    36   ar
     2    35    34   ar
     3     9     2    2
     4    36    31   ar
     5    12    13   ar
     6    12    11   ar
     7    13    14   ar
     8    34    33   ar
     9    10    11    1
    10    10     1    1
    11    11    16   ar
    12    31    30    1
    13    31    32   ar
    14     2     8    2
    15     2     1    1
    16     2     3    1
    17    14    15   ar
    18    30     3    1
    19    16    15   ar
    20    15    17    1
    21     1     7    1
    22    21    17    2
    23     3     4    1
    24    33    32   ar
    25    17    18   am
    26     7     6    1
    27     7    22    1
    28     4    39    1
    29     4     5    1
    30    18    19    1
    31    18    20    1
    32     6     5    1
    33     6    37    1
    34    39    40    1
    35    22    23    1
    36     5    47    1
    37    48    47    1
    38    37    38    1
    39    25    26   ar
    40    25    24   ar
    41    40    41    1
    42    23    24    1
    43    42    41   ar
    44    42    43   ar
    45    26    27   ar
    46    24    29   ar
    47    41    46   ar
    48    43    44   ar
    49    46    45   ar
    50    27    28   ar
    51    44    45   ar
    52    29    28   ar
