@<TRIPOS>MOLECULE
/tmp/ewbell/vina_1g2k_1g2k_lig/vina/vina4.pdbqt
 48 52 0 0 0
SMALL
GASTEIGER

@<TRIPOS>ATOM
      1  N1        12.5880   23.3630    4.6260 N.3   203  INH203     -0.2810
      2  S1        14.2140   23.2340    4.3590 S.O2  203  INH203      0.3200
      3  N2        14.6300   22.1880    5.5570 N.3   203  INH203     -0.2810
      4  C1        14.6420   22.7860    6.9130 C.3   203  INH203      0.1530
      5  C2        13.3180   22.6010    7.6720 C.3   203  INH203      0.1740
      6  C3        12.0580   22.6430    6.8140 C.3   203  INH203      0.1740
      7  C4        11.9220   23.8360    5.8520 C.3   203  INH203      0.1530
      8  O1        14.8940   24.5140    4.5520 O.2   203  INH203     -0.1820
      9  O6        14.4290   22.5380    3.0910 O.2   203  INH203     -0.1820
     10  C5        11.8310   23.6860    3.4960 C.3   203  INH203      0.1760
     11  C6        10.3780   23.8730    3.3370 C.ar  203  INH203     -0.0390
     12  C11        9.5750   22.7510    2.9460 C.ar  203  INH203      0.0090
     13  C10        8.1670   22.8820    2.8060 C.ar  203  INH203      0.0020
     14  C9         7.5590   24.1380    3.0640 C.ar  203  INH203      0.0170
     15  C8         8.3650   25.2660    3.4600 C.ar  203  INH203      0.0320
     16  C7         9.7710   25.1240    3.5950 C.ar  203  INH203      0.0260
     17  C33        7.7200   26.5820    3.7540 C.2   203  INH203      0.2510
     18  N3         6.6610   26.6430    4.6390 N.am  203  INH203     -0.3610
     19  H34        6.3060   25.8210    5.0820 H     203  INH203      0.1620
     20  C34        6.0860   27.9480    4.9000 C.3   203  INH203      0.1490
     21  O7         8.1680   27.6160    3.1960 O.2   203  INH203     -0.2680
     22  C25       12.3430   25.2780    6.2490 C.3   203  INH203      0.2040
     23  O5        11.9620   25.4770    7.6370 O.3   203  INH203     -0.3490
     24  C26       10.8260   26.1600    8.0060 C.ar  203  INH203      0.0680
     25  C31       10.8400   26.9380    9.2030 C.ar  203  INH203      0.0370
     26  C30        9.6820   27.6740    9.6160 C.ar  203  INH203      0.0030
     27  C29        8.4970   27.6290    8.8300 C.ar  203  INH203      0.0000
     28  C28        8.4570   26.8530    7.6340 C.ar  203  INH203      0.0030
     29  C27        9.6130   26.1280    7.2240 C.ar  203  INH203      0.0370
     30  C18       14.4830   20.7140    5.2960 C.3   203  INH203      0.1760
     31  C19       15.5900   19.9500    4.6090 C.ar  203  INH203     -0.0400
     32  C24       15.3390   19.2630    3.3700 C.ar  203  INH203      0.0090
     33  C23       16.3800   18.5310    2.7170 C.ar  203  INH203      0.0010
     34  C22       17.6870   18.4840    3.3070 C.ar  203  INH203      0.0000
     35  C21       17.9460   19.1700    4.5410 C.ar  203  INH203      0.0010
     36  C20       16.8960   19.9010    5.1870 C.ar  203  INH203      0.0090
     37  O4        10.9460   22.5880    7.6990 O.3   203  INH203     -0.3910
     38  H24       11.2440   22.7160    8.5910 H     203  INH203      0.2100
     39  C32       15.8520   22.3300    7.7350 C.3   203  INH203      0.2040
     40  O2        15.8750   20.8880    7.8700 O.3   203  INH203     -0.3490
     41  C12       16.4910   20.3110    8.9720 C.ar  203  INH203      0.0680
     42  C17       15.7820   19.3530    9.7680 C.ar  203  INH203      0.0370
     43  C16       16.3960   18.7500   10.9120 C.ar  203  INH203      0.0030
     44  C15       17.7350   19.0990   11.2710 C.ar  203  INH203      0.0000
     45  C14       18.4640   20.0520   10.4910 C.ar  203  INH203      0.0030
     46  C13       17.8420   20.6520    9.3530 C.ar  203  INH203      0.0370
     47  O3        13.3100   21.3540    8.3360 O.3   203  INH203     -0.3910
     48  H23       12.5940   21.3330    8.9600 H     203  INH203      0.2100
@<TRIPOS>BOND
     1    33    34   ar
     2    33    32   ar
     3    13    12   ar
     4    13    14   ar
     5    12    11   ar
     6    14    15   ar
     7     9     2    2
     8    21    17    2
     9    34    35   ar
    10    11    10    1
    11    11    16   ar
    12    32    31   ar
    13    15    16   ar
    14    15    17    1
    15    10     1    1
    16    17    18   am
    17     2     8    2
    18     2     1    1
    19     2     3    1
    20    35    36   ar
    21    31    36   ar
    22    31    30    1
    23     1     7    1
    24    18    20    1
    25    18    19    1
    26    30     3    1
    27     3     4    1
    28     7    22    1
    29     7     6    1
    30    22    23    1
    31     6     5    1
    32     6    37    1
    33     4     5    1
    34     4    39    1
    35    29    28   ar
    36    29    24   ar
    37    28    27   ar
    38    23    24    1
    39     5    47    1
    40    37    38    1
    41    39    40    1
    42    40    41    1
    43    24    25   ar
    44    47    48    1
    45    27    26   ar
    46    41    46   ar
    47    41    42   ar
    48    25    26   ar
    49    46    45   ar
    50    42    43   ar
    51    45    44   ar
    52    43    44   ar
