@<TRIPOS>MOLECULE
/tmp/ewbell/vina_1g2k_1g2k_lig/vina/vina2.pdbqt
 48 52 0 0 0
SMALL
GASTEIGER

@<TRIPOS>ATOM
      1  N1        11.2120   23.3460    4.4550 N.3   203  INH203     -0.2810
      2  S1        12.8210   23.4360    4.0870 S.O2  203  INH203      0.3200
      3  N2        13.4670   22.6560    5.3810 N.3   203  INH203     -0.2810
      4  C1        13.4500   23.4410    6.6380 C.3   203  INH203      0.1530
      5  C2        12.2160   23.1630    7.5120 C.3   203  INH203      0.1740
      6  C3        10.9230   22.8810    6.7540 C.3   203  INH203      0.1740
      7  C4        10.5410   23.8830    5.6510 C.3   203  INH203      0.1530
      8  O1        13.2880   24.8210    4.0520 O.2   203  INH203     -0.1820
      9  O6        13.0820   22.6040    2.9120 O.2   203  INH203     -0.1820
     10  C5        10.3550   23.3770    3.3520 C.3   203  INH203      0.1760
     11  C6         9.2450   24.2920    3.0250 C.ar  203  INH203     -0.0390
     12  C11        9.5230   25.4660    2.2510 C.ar  203  INH203      0.0090
     13  C10        8.4790   26.3610    1.8930 C.ar  203  INH203      0.0020
     14  C9         7.1510   26.0760    2.3060 C.ar  203  INH203      0.0170
     15  C8         6.8710   24.8940    3.0820 C.ar  203  INH203      0.0320
     16  C7         7.9220   24.0090    3.4360 C.ar  203  INH203      0.0260
     17  C33        5.4680   24.5850    3.4960 C.2   203  INH203      0.2510
     18  N3         5.1460   23.3120    3.9260 N.am  203  INH203     -0.3610
     19  H34        5.8300   22.5850    3.9550 H     203  INH203      0.1620
     20  C34        3.7760   23.0740    4.3320 C.3   203  INH203      0.1490
     21  O7         4.6080   25.5020    3.4590 O.2   203  INH203     -0.2680
     22  C25       10.7370   25.4160    5.8160 C.3   203  INH203      0.2040
     23  O5         9.4370   25.9930    6.1170 O.3   203  INH203     -0.3490
     24  C26        9.1920   26.7150    7.2610 C.ar  203  INH203      0.0680
     25  C31        8.5420   27.9830    7.1560 C.ar  203  INH203      0.0370
     26  C30        8.2570   28.7620    8.3250 C.ar  203  INH203      0.0030
     27  C29        8.6290   28.2750    9.6090 C.ar  203  INH203      0.0000
     28  C28        9.2850   27.0150    9.7370 C.ar  203  INH203      0.0030
     29  C27        9.5610   26.2410    8.5730 C.ar  203  INH203      0.0370
     30  C18       13.5530   21.1550    5.3350 C.3   203  INH203      0.1760
     31  C19       14.8340   20.4800    4.9050 C.ar  203  INH203     -0.0400
     32  C24       16.0140   20.5710    5.7220 C.ar  203  INH203      0.0090
     33  C23       17.2330   19.9410    5.3180 C.ar  203  INH203      0.0010
     34  C22       17.2750   19.2100    4.0840 C.ar  203  INH203      0.0000
     35  C21       16.1000   19.1120    3.2640 C.ar  203  INH203      0.0010
     36  C20       14.8840   19.7470    3.6790 C.ar  203  INH203      0.0090
     37  O4         9.8830   22.7820    7.7190 O.3   203  INH203     -0.3910
     38  H24        9.8410   23.5860    8.2220 H     203  INH203      0.2100
     39  C32       14.7590   23.3050    7.4220 C.3   203  INH203      0.2040
     40  O2        14.5970   22.4220    8.5590 O.3   203  INH203     -0.3490
     41  C12       15.6440   21.5950    8.9420 C.ar  203  INH203      0.0680
     42  C17       16.9990   22.0120    8.7280 C.ar  203  INH203      0.0370
     43  C16       18.0930   21.1720    9.1110 C.ar  203  INH203      0.0030
     44  C15       17.8410   19.9020    9.7170 C.ar  203  INH203      0.0000
     45  C14       16.4980   19.4650    9.9420 C.ar  203  INH203      0.0030
     46  C13       15.4110   20.3080    9.5530 C.ar  203  INH203      0.0370
     47  O3        12.4500   22.0420    8.3380 O.3   203  INH203     -0.3910
     48  H23       12.9640   22.3050    9.0930 H     203  INH203      0.2100
@<TRIPOS>BOND
     1    13    12   ar
     2    13    14   ar
     3    12    11   ar
     4    14    15   ar
     5     9     2    2
     6    11    10    1
     7    11    16   ar
     8    15    16   ar
     9    15    17    1
    10    35    36   ar
    11    35    34   ar
    12    10     1    1
    13    21    17    2
    14    17    18   am
    15    36    31   ar
    16    18    19    1
    17    18    20    1
    18     8     2    2
    19    34    33   ar
    20     2     1    1
    21     2     3    1
    22     1     7    1
    23    31    30    1
    24    31    32   ar
    25    33    32   ar
    26    30     3    1
    27     3     4    1
    28     7    22    1
    29     7     6    1
    30    22    23    1
    31    23    24    1
    32     4    39    1
    33     4     5    1
    34     6     5    1
    35     6    37    1
    36    25    24   ar
    37    25    26   ar
    38    24    29   ar
    39    39    40    1
    40     5    47    1
    41    37    38    1
    42    26    27   ar
    43    47    48    1
    44    40    41    1
    45    29    28   ar
    46    42    41   ar
    47    42    43   ar
    48    41    46   ar
    49    43    44   ar
    50    46    45   ar
    51    27    28   ar
    52    44    45   ar
