@<TRIPOS>MOLECULE
/tmp/ewbell/vina_1g2k_1g2k_lig/vina/vina5.pdbqt
 48 52 0 0 0
SMALL
GASTEIGER

@<TRIPOS>ATOM
      1  N1         7.4970   25.7730    3.6730 N.3   203  INH203     -0.2810
      2  S1         7.6450   27.2250    4.4480 S.O2  203  INH203      0.3200
      3  N2         6.5370   27.0370    5.6470 N.3   203  INH203     -0.2810
      4  C1         5.1280   27.1320    5.1980 C.3   203  INH203      0.1530
      5  C2         4.5020   25.7670    4.8660 C.3   203  INH203      0.1740
      6  C3         5.4480   24.7430    4.2490 C.3   203  INH203      0.1740
      7  C4         6.2840   25.2170    3.0480 C.3   203  INH203      0.1530
      8  O1         7.2610   28.3390    3.5810 O.2   203  INH203     -0.1820
      9  O6         8.9590   27.2860    5.0860 O.2   203  INH203     -0.1820
     10  C5         8.6420   25.3510    2.9920 C.3   203  INH203      0.1760
     11  C6         9.5400   24.2090    3.2430 C.ar  203  INH203     -0.0390
     12  C11        9.0690   22.8840    2.9610 C.ar  203  INH203      0.0090
     13  C10        9.9120   21.7580    3.1650 C.ar  203  INH203      0.0020
     14  C9        11.2320   21.9590    3.6460 C.ar  203  INH203      0.0170
     15  C8        11.7070   23.2910    3.9270 C.ar  203  INH203      0.0320
     16  C7        10.8560   24.4080    3.7220 C.ar  203  INH203      0.0260
     17  C33       13.1050   23.5020    4.4120 C.2   203  INH203      0.2510
     18  N3        13.8020   22.4480    4.9700 N.am  203  INH203     -0.3610
     19  H34       13.3870   21.5450    5.0700 H     203  INH203      0.1620
     20  C34       15.1600   22.7040    5.4060 C.3   203  INH203      0.1490
     21  O7        13.6270   24.6390    4.2850 O.2   203  INH203     -0.2680
     22  C25        5.7020   26.1380    1.9400 C.3   203  INH203      0.2040
     23  O5         4.5710   25.4430    1.3450 O.3   203  INH203     -0.3490
     24  C26        3.4190   26.0900    0.9640 C.ar  203  INH203      0.0680
     25  C31        2.9440   25.9340   -0.3750 C.ar  203  INH203      0.0370
     26  C30        1.7410   26.5810   -0.8080 C.ar  203  INH203      0.0030
     27  C29        1.0080   27.3960    0.0990 C.ar  203  INH203      0.0000
     28  C28        1.4670   27.5710    1.4380 C.ar  203  INH203      0.0030
     29  C27        2.6600   26.9210    1.8670 C.ar  203  INH203      0.0370
     30  C18        6.9660   26.3360    6.9070 C.3   203  INH203      0.1760
     31  C19        7.5710   27.1220    8.0470 C.ar  203  INH203     -0.0400
     32  C24        8.6530   26.5720    8.8170 C.ar  203  INH203      0.0090
     33  C23        9.2260   27.3070    9.9020 C.ar  203  INH203      0.0010
     34  C22        8.7130   28.6080   10.2220 C.ar  203  INH203      0.0000
     35  C21        7.6350   29.1660    9.4550 C.ar  203  INH203      0.0010
     36  C20        7.0690   28.4210    8.3690 C.ar  203  INH203      0.0090
     37  O4         4.6670   23.6090    3.8960 O.3   203  INH203     -0.3910
     38  H24        4.2850   23.2310    4.6790 H     203  INH203      0.2100
     39  C32        4.2650   27.9460    6.1680 C.3   203  INH203      0.2040
     40  O2         2.8570   27.6760    5.9640 O.3   203  INH203     -0.3490
     41  C12        2.0870   28.5650    5.2270 C.ar  203  INH203      0.0680
     42  C17        2.6990   29.7130    4.6260 C.ar  203  INH203      0.0370
     43  C16        1.9220   30.6460    3.8660 C.ar  203  INH203      0.0030
     44  C15        0.5180   30.4350    3.6980 C.ar  203  INH203      0.0000
     45  C14       -0.1150   29.2960    4.2870 C.ar  203  INH203      0.0030
     46  C13        0.6670   28.3720    5.0470 C.ar  203  INH203      0.0370
     47  O3         3.9790   25.1760    6.0380 O.3   203  INH203     -0.3910
     48  H23        3.0400   25.0660    5.9450 H     203  INH203      0.2100
@<TRIPOS>BOND
     1    26    25   ar
     2    26    27   ar
     3    25    24   ar
     4    27    28   ar
     5    24    23    1
     6    24    29   ar
     7    23    22    1
     8    28    29   ar
     9    22     7    1
    10    12    13   ar
    11    12    11   ar
    12    10    11    1
    13    10     1    1
    14     7     1    1
    15     7     6    1
    16    13    14   ar
    17    11    16   ar
    18     8     2    2
    19    14    15   ar
    20     1     2    1
    21    44    43   ar
    22    44    45   ar
    23    16    15   ar
    24    43    42   ar
    25    37     6    1
    26    37    38    1
    27    15    17    1
    28     6     5    1
    29    21    17    2
    30    45    46   ar
    31    17    18   am
    32     2     9    2
    33     2     3    1
    34    42    41   ar
    35     5     4    1
    36     5    47    1
    37    18    19    1
    38    18    20    1
    39    46    41   ar
    40     4     3    1
    41     4    39    1
    42    41    40    1
    43     3    30    1
    44    48    47    1
    45    40    39    1
    46    30    31    1
    47    31    36   ar
    48    31    32   ar
    49    36    35   ar
    50    32    33   ar
    51    35    34   ar
    52    33    34   ar
