@<TRIPOS>MOLECULE
./ligand/1f74_lig.pdb
 38 37 0 0 0
SMALL
GASTEIGER

@<TRIPOS>ATOM
      1  C1         1.9790   14.3000    6.2480 C.2   1181  INH1181     0.4212
      2  O1         2.7170   13.3410    5.9700 O.co2 1181  INH1181    -0.2373
      3  O2         0.8910   14.5830    5.7190 O.co2 1181  INH1181    -0.2373
      4  C2         2.5340   15.2150    7.3700 C.2   1181  INH1181     0.2434
      5  O3         3.7680   15.1950    7.5440 O.2   1181  INH1181    -0.2850
      6  C3         1.4840   16.0520    8.1210 C.3   1181  INH1181     0.0189
      7  C4         1.6290   16.0050    9.7010 C.3   1181  INH1181    -0.0248
      8  C5         0.2090   15.8060   10.3300 C.3   1181  INH1181     0.0519
      9  N1         0.1130   14.5130   11.0610 N.am  1181  INH1181    -0.3101
     10  C6        -0.9710   13.7350   10.9580 C.2   1181  INH1181     0.2102
     11  C7        -0.7590   12.3720   11.6120 C.3   1181  INH1181     0.0122
     12  O4        -2.0740   14.0130   10.4330 O.2   1181  INH1181    -0.2761
     13  O5        -0.1450   18.1810   10.5700 O.3   1181  INH1181    -0.3873
     14  C8        -0.1740   16.9550   11.3340 C.3   1181  INH1181     0.1018
     15  C9        -1.6170   16.7650   11.8980 C.3   1181  INH1181     0.1107
     16  O6        -2.5030   16.5780   10.7990 O.3   1181  INH1181    -0.3865
     17  C10       -2.0580   17.9900   12.7340 C.3   1181  INH1181     0.1065
     18  O7        -0.9840   18.2830   13.6620 O.3   1181  INH1181    -0.3869
     19  C11       -3.3860   17.7670   13.4230 C.3   1181  INH1181     0.0726
     20  O8        -3.3140   16.7290   14.4080 O.3   1181  INH1181    -0.3924
     21  H1         0.4860   15.6750    7.8540 H     1181  INH1181     0.0348
     22  H2         1.5790   17.0990    7.7960 H     1181  INH1181     0.0348
     23  H3         2.0640   16.9490   10.0610 H     1181  INH1181     0.0288
     24  H4         2.2820   15.1670    9.9880 H     1181  INH1181     0.0288
     25  H5        -0.5240   15.8020    9.5090 H     1181  INH1181     0.0525
     26  H6         0.8730   14.2200   11.6410 H     1181  INH1181     0.1490
     27  H7        -1.6720   11.7680   11.5040 H     1181  INH1181     0.0322
     28  H8        -0.5340   12.5090   12.6800 H     1181  INH1181     0.0322
     29  H9         0.0810   11.8570   11.1230 H     1181  INH1181     0.0322
     30  H10       -0.3710   18.9110   11.1340 H     1181  INH1181     0.2100
     31  H11        0.5480   16.9920   12.1630 H     1181  INH1181     0.0638
     32  H12       -1.6390   15.8720   12.5400 H     1181  INH1181     0.0646
     33  H13       -2.2240   15.8240   10.2930 H     1181  INH1181     0.2100
     34  H14       -2.1780   18.8500   12.0580 H     1181  INH1181     0.0643
     35  H15       -1.2210   19.0330   14.1940 H     1181  INH1181     0.2100
     36  H16       -4.1350   17.4880   12.6670 H     1181  INH1181     0.0584
     37  H17       -3.6920   18.7020   13.9150 H     1181  INH1181     0.0584
     38  H18       -2.6690   16.9610   15.0660 H     1181  INH1181     0.2095
@<TRIPOS>BOND
     1     3     1   ar
     2     2     1   ar
     3     1     4    1
     4     4     5    2
     5     4     6    1
     6    22     6    1
     7    21     6    1
     8     6     7    1
     9    25     8    1
    10     7    24    1
    11     7    23    1
    12     7     8    1
    13    33    16    1
    14     8     9    1
    15     8    14    1
    16    12    10    2
    17    13    30    1
    18    13    14    1
    19    16    15    1
    20    10     9   am
    21    10    11    1
    22     9    26    1
    23    29    11    1
    24    14    15    1
    25    14    31    1
    26    27    11    1
    27    11    28    1
    28    15    32    1
    29    15    17    1
    30    34    17    1
    31    36    19    1
    32    17    19    1
    33    17    18    1
    34    19    37    1
    35    19    20    1
    36    18    35    1
    37    20    38    1
