@<TRIPOS>MOLECULE
/tmp/ewbell/vina_1f74_1f74_lig/vina/vina5.pdbqt
 26 25 0 0 0
SMALL
GASTEIGER

@<TRIPOS>ATOM
      1  C5        -0.6300   14.6740   11.2550 C.3   1181  INH1181     0.1160
      2  C4        -1.8210   14.6100   12.2700 C.3   1181  INH1181     0.0360
      3  C3        -1.4490   15.4740   13.5480 C.3   1181  INH1181     0.0920
      4  C2        -1.5490   16.9940   13.3270 C.2   1181  INH1181     0.2220
      5  O3        -0.6260   17.8310   13.3120 O.2   1181  INH1181    -0.2860
      6  C1        -2.9840   17.5430   13.1170 C.2   1181  INH1181     0.2130
      7  O2        -3.3680   17.8080   11.9650 O.2   1181  INH1181    -0.6440
      8  O1        -3.6380   17.6580   14.1670 O.3   1181  INH1181    -0.7710
      9  H         -3.2530   17.4180   14.9870 H     1181  INH1181     0.1670
     10  N1        -0.1100   13.3160   10.9380 N.am  1181  INH1181    -0.3540
     11  C6         0.8500   12.7490   11.6790 C.2   1181  INH1181     0.2140
     12  O4         1.4300   13.2210   12.6830 O.2   1181  INH1181    -0.2740
     13  C7         1.2440   11.3740   11.1460 C.3   1181  INH1181     0.1170
     14  H6        -0.4850   12.8180   10.1560 H     1181  INH1181     0.1620
     15  C8        -1.0280   15.3650    9.8990 C.3   1181  INH1181     0.1720
     16  O5        -2.3690   15.8670   10.0830 O.3   1181  INH1181    -0.3910
     17  H10       -2.4780   16.1600   10.9800 H     1181  INH1181     0.2100
     18  C9        -0.0940   16.5720    9.5750 C.3   1181  INH1181     0.1790
     19  O6         0.1530   16.5810    8.1730 O.3   1181  INH1181    -0.3900
     20  H13        0.4930   17.4300    7.9180 H     1181  INH1181     0.2100
     21  C10        1.2420   16.4710   10.3510 C.3   1181  INH1181     0.1730
     22  C11        2.3880   16.0360    9.4640 C.3   1181  INH1181     0.1980
     23  O8         2.3470   14.6320    9.1820 O.3   1181  INH1181    -0.3980
     24  H18        2.1080   14.1570    9.9690 H     1181  INH1181     0.2090
     25  O7         1.4720   17.7580   10.9760 O.3   1181  INH1181    -0.3910
     26  H15        2.3980   17.8600   11.1590 H     1181  INH1181     0.2100
@<TRIPOS>BOND
     1    20    19    1
     2    19    18    1
     3    23    22    1
     4    23    24    1
     5    22    21    1
     6    18    15    1
     7    18    21    1
     8    15    16    1
     9    15     1    1
    10    16    17    1
    11    14    10    1
    12    21    25    1
    13    10     1    1
    14    10    11   am
    15    25    26    1
    16    13    11    1
    17     1     2    1
    18    11    12    2
    19     7     6    2
    20     2     3    1
    21     6     4    1
    22     6     8    1
    23     5     4    2
    24     4     3    1
    25     8     9    1
