@<TRIPOS>MOLECULE
/tmp/ewbell/vina_1f74_1f74_lig/vina/vina1.pdbqt
 26 25 0 0 0
SMALL
GASTEIGER

@<TRIPOS>ATOM
      1  C5        -0.4740   13.3540    9.9150 C.3   1181  INH1181     0.1160
      2  C4         0.9190   13.2180    9.2140 C.3   1181  INH1181     0.0360
      3  C3         1.0050   14.2840    8.0410 C.3   1181  INH1181     0.0920
      4  C2         0.9650   15.7460    8.5200 C.2   1181  INH1181     0.2220
      5  O3         0.0370   16.5700    8.3960 O.2   1181  INH1181    -0.2860
      6  C1         2.2490   16.2520    9.2250 C.2   1181  INH1181     0.2130
      7  O2         3.3570   15.9810    8.7330 O.2   1181  INH1181    -0.6440
      8  O1         2.0310   16.9180   10.2510 O.3   1181  INH1181    -0.7710
      9  H          1.6110   17.7530   10.1860 H     1181  INH1181     0.1670
     10  N1        -1.2230   12.0680    9.8960 N.am  1181  INH1181    -0.3540
     11  C6        -2.5180   12.0220    9.5610 C.2   1181  INH1181     0.2140
     12  O4        -3.2640   12.9720    9.2320 O.2   1181  INH1181    -0.2740
     13  C7        -3.0790   10.6040    9.6450 C.3   1181  INH1181     0.1170
     14  H6        -0.7490   11.2210   10.1400 H     1181  INH1181     0.1620
     15  C8        -0.3540   13.8180   11.4140 C.3   1181  INH1181     0.1720
     16  O5         1.0160   14.2400   11.5930 O.3   1181  INH1181    -0.3910
     17  H10        1.2330   14.8980   10.9440 H     1181  INH1181     0.2100
     18  C9        -1.2840   15.0350   11.7140 C.3   1181  INH1181     0.1790
     19  O6        -1.9780   15.3690   10.5170 O.3   1181  INH1181    -0.3900
     20  H13       -1.5870   14.9090    9.7850 H     1181  INH1181     0.2100
     21  C10       -0.4700   16.2520   12.2150 C.3   1181  INH1181     0.1730
     22  C11       -1.1730   17.5640   11.9440 C.3   1181  INH1181     0.1980
     23  O8        -0.7470   18.1580   10.7110 O.3   1181  INH1181    -0.3980
     24  H18       -1.3430   17.9070   10.0150 H     1181  INH1181     0.2090
     25  O7        -0.2040   16.0370   13.6240 O.3   1181  INH1181    -0.3910
     26  H15        0.2020   16.8130   13.9910 H     1181  INH1181     0.2100
@<TRIPOS>BOND
     1     3     4    1
     2     3     2    1
     3     5     4    2
     4     4     6    1
     5     7     6    2
     6     2     1    1
     7     6     8    1
     8    12    11    2
     9    11    13    1
    10    11    10   am
    11    20    19    1
    12    10     1    1
    13    10    14    1
    14     1    15    1
    15    24    23    1
    16     9     8    1
    17    19    18    1
    18    23    22    1
    19    17    16    1
    20    15    16    1
    21    15    18    1
    22    18    21    1
    23    22    21    1
    24    21    25    1
    25    25    26    1
