@<TRIPOS>MOLECULE
/tmp/ewbell/vina_1f74_1f74_lig/vina/vina2.pdbqt
 26 25 0 0 0
SMALL
GASTEIGER

@<TRIPOS>ATOM
      1  C5        -0.0540   15.5200   10.2910 C.3   1181  INH1181     0.1160
      2  C4         1.3660   14.8880   10.4780 C.3   1181  INH1181     0.0360
      3  C3         2.1960   15.0930    9.1400 C.3   1181  INH1181     0.0920
      4  C2         1.9000   14.0460    8.0520 C.2   1181  INH1181     0.2220
      5  O3         1.6300   12.8380    8.2010 O.2   1181  INH1181    -0.2860
      6  C1         1.9660   14.5640    6.5930 C.2   1181  INH1181     0.2130
      7  O2         1.0010   14.3650    5.8350 O.2   1181  INH1181    -0.6440
      8  O1         3.0190   15.1630    6.3190 O.3   1181  INH1181    -0.7710
      9  H          3.6860   14.7330    5.8210 H     1181  INH1181     0.1670
     10  N1        -1.1280   14.5020   10.4410 N.am  1181  INH1181    -0.3540
     11  C6        -1.7310   13.9640    9.3730 C.2   1181  INH1181     0.2140
     12  O4        -1.5140   14.2030    8.1630 O.2   1181  INH1181    -0.2740
     13  C7        -2.8190   12.9710    9.7720 C.3   1181  INH1181     0.1170
     14  H6        -1.4070   14.2140   11.3570 H     1181  INH1181     0.1620
     15  C8        -0.3410   16.6760   11.3180 C.3   1181  INH1181     0.1720
     16  O5        -0.5960   17.8590   10.5300 O.3   1181  INH1181    -0.3910
     17  H10       -1.4140   17.7560   10.0590 H     1181  INH1181     0.2100
     18  C9        -1.6100   16.3780   12.1760 C.3   1181  INH1181     0.1790
     19  O6        -2.7370   16.9410   11.5150 O.3   1181  INH1181    -0.3900
     20  H13       -3.1010   16.3030   10.9130 H     1181  INH1181     0.2100
     21  C10       -1.4760   16.9710   13.6000 C.3   1181  INH1181     0.1730
     22  C11       -0.7040   16.0620   14.5300 C.3   1181  INH1181     0.1980
     23  O8        -1.5400   15.4950   15.5460 O.3   1181  INH1181    -0.3980
     24  H18       -2.4320   15.8020   15.4310 H     1181  INH1181     0.2090
     25  O7        -0.8710   18.2810   13.4620 O.3   1181  INH1181    -0.3910
     26  H15       -0.6140   18.4170   12.5580 H     1181  INH1181     0.2100
@<TRIPOS>BOND
     1     9     8    1
     2     7     6    2
     3     8     6    1
     4     6     4    1
     5     4     5    2
     6     4     3    1
     7    12    11    2
     8     3     2    1
     9    11    13    1
    10    11    10   am
    11    17    16    1
    12     1    10    1
    13     1     2    1
    14     1    15    1
    15    10    14    1
    16    16    15    1
    17    20    19    1
    18    15    18    1
    19    19    18    1
    20    18    21    1
    21    26    25    1
    22    25    21    1
    23    21    22    1
    24    22    23    1
    25    24    23    1
