@<TRIPOS>MOLECULE
/tmp/ewbell/vina_1f74_1f74_lig/vina/vina3.pdbqt
 26 25 0 0 0
SMALL
GASTEIGER

@<TRIPOS>ATOM
      1  C5        -0.1560   15.9700    9.8230 C.3   1181  INH1181     0.1160
      2  C4         1.3710   15.9690    9.4800 C.3   1181  INH1181     0.0360
      3  C3         1.5430   15.7260    7.9210 C.3   1181  INH1181     0.0920
      4  C2         1.6520   14.2420    7.5270 C.2   1181  INH1181     0.2220
      5  O3         1.6020   13.2430    8.2710 O.2   1181  INH1181    -0.2860
      6  C1         1.8710   13.9680    6.0170 C.2   1181  INH1181     0.2130
      7  O2         1.2570   14.6540    5.1820 O.2   1181  INH1181    -0.6440
      8  O1         2.6830   13.0580    5.7830 O.3   1181  INH1181    -0.7710
      9  H          3.2890   12.7900    6.4450 H     1181  INH1181     0.1670
     10  N1        -0.6790   14.5860    9.9880 N.am  1181  INH1181    -0.3540
     11  C6        -1.7130   14.1430    9.2630 C.2   1181  INH1181     0.2140
     12  O4        -2.3660   14.7610    8.3920 O.2   1181  INH1181    -0.2740
     13  C7        -2.0920   12.7090    9.6280 C.3   1181  INH1181     0.1170
     14  H6        -0.2500   13.9760   10.6550 H     1181  INH1181     0.1620
     15  C8        -0.4790   16.7660   11.1410 C.3   1181  INH1181     0.1720
     16  O5        -0.7100   18.1330   10.7380 O.3   1181  INH1181    -0.3910
     17  H10       -1.6090   18.3730   10.9290 H     1181  INH1181     0.2100
     18  C9        -1.7760   16.2340   11.8290 C.3   1181  INH1181     0.1790
     19  O6        -2.8920   16.6250   11.0360 O.3   1181  INH1181    -0.3900
     20  H13       -3.2160   15.8730   10.5550 H     1181  INH1181     0.2100
     21  C10       -1.9190   16.7940   13.2640 C.3   1181  INH1181     0.1730
     22  C11       -3.0470   17.7960   13.3790 C.3   1181  INH1181     0.1980
     23  O8        -2.6670   19.0920   12.9000 O.3   1181  INH1181    -0.3980
     24  H18       -1.7730   19.2770   13.1610 H     1181  INH1181     0.2090
     25  O7        -2.0830   15.6600   14.1510 O.3   1181  INH1181    -0.3910
     26  H15       -1.3290   15.5960   14.7260 H     1181  INH1181     0.2100
@<TRIPOS>BOND
     1     7     6    2
     2     8     6    1
     3     8     9    1
     4     6     4    1
     5     4     3    1
     6     4     5    2
     7     3     2    1
     8    12    11    2
     9    11    13    1
    10    11    10   am
    11     2     1    1
    12     1    10    1
    13     1    15    1
    14    10    14    1
    15    20    19    1
    16    16    17    1
    17    16    15    1
    18    19    18    1
    19    15    18    1
    20    18    21    1
    21    23    24    1
    22    23    22    1
    23    21    22    1
    24    21    25    1
    25    25    26    1
