@<TRIPOS>MOLECULE
/tmp/ewbell/vina_1f74_1f74_lig/vina/vina4.pdbqt
 26 25 0 0 0
SMALL
GASTEIGER

@<TRIPOS>ATOM
      1  C5        -0.6800   15.5770   11.5660 C.3   1181  INH1181     0.1160
      2  C4        -0.8350   15.3250   10.0280 C.3   1181  INH1181     0.0360
      3  C3         0.5740   14.8980    9.4360 C.3   1181  INH1181     0.0920
      4  C2         1.2100   15.9510    8.5110 C.2   1181  INH1181     0.2220
      5  O3         0.6630   16.9350    7.9770 O.2   1181  INH1181    -0.2860
      6  C1         2.7140   15.7410    8.1970 C.2   1181  INH1181     0.2130
      7  O2         3.0380   15.1510    7.1530 O.2   1181  INH1181    -0.6440
      8  O1         3.4780   16.2160    9.0540 O.3   1181  INH1181    -0.7710
      9  H          4.3140   16.5540    8.7990 H     1181  INH1181     0.1670
     10  N1         0.3610   14.6950   12.1600 N.am  1181  INH1181    -0.3540
     11  C6         0.0900   13.9080   13.2080 C.2   1181  INH1181     0.2140
     12  O4        -0.9950   13.7850   13.8210 O.2   1181  INH1181    -0.2740
     13  C7         1.3170   13.1210   13.6630 C.3   1181  INH1181     0.1170
     14  H6         1.2820   14.6900   11.7690 H     1181  INH1181     0.1620
     15  C8        -0.2950   17.0660   11.8990 C.3   1181  INH1181     0.1720
     16  O5        -0.4700   17.8080   10.6730 O.3   1181  INH1181    -0.3910
     17  H10        0.0310   18.6140   10.7150 H     1181  INH1181     0.2100
     18  C9        -1.2430   17.6740   12.9780 C.3   1181  INH1181     0.1790
     19  O6        -1.1450   16.8800   14.1560 O.3   1181  INH1181    -0.3900
     20  H13       -0.2660   16.5290   14.2270 H     1181  INH1181     0.2100
     21  C10       -2.7080   17.7110   12.4810 C.3   1181  INH1181     0.1730
     22  C11       -3.6750   17.1540   13.5020 C.3   1181  INH1181     0.1980
     23  O8        -4.0390   18.1290   14.4880 O.3   1181  INH1181    -0.3980
     24  H18       -4.9720   18.2960   14.4390 H     1181  INH1181     0.2090
     25  O7        -3.0020   19.0840   12.1180 O.3   1181  INH1181    -0.3910
     26  H15       -2.9770   19.6290   12.8950 H     1181  INH1181     0.2100
@<TRIPOS>BOND
     1     7     6    2
     2     5     4    2
     3     6     4    1
     4     6     8    1
     5     4     3    1
     6     9     8    1
     7     3     2    1
     8     2     1    1
     9    16    17    1
    10    16    15    1
    11     1    15    1
    12     1    10    1
    13    14    10    1
    14    15    18    1
    15    25    21    1
    16    25    26    1
    17    10    11   am
    18    21    18    1
    19    21    22    1
    20    18    19    1
    21    11    13    1
    22    11    12    2
    23    22    23    1
    24    19    20    1
    25    24    23    1
