@<TRIPOS>MOLECULE
./ligand/3dp4_lig.pdb
 23 23 0 0 0
SMALL
GASTEIGER

@<TRIPOS>ATOM
      1  N1        20.9390   20.7800   13.3460 N.4   261  INH261      0.2291
      2  C1        20.7560   19.5320   14.1660 C.3   261  INH261      0.0828
      3  C2        19.2250   19.1940   14.2990 C.2   261  INH261      0.4029
      4  O1        18.9040   18.1840   14.9600 O.co2 261  INH261     -0.2400
      5  C3        21.4330   19.7320   15.5520 C.3   261  INH261      0.0345
      6  O2        18.4180   19.9480   13.7350 O.co2 261  INH261     -0.2400
      7  H1        21.9920   21.0030   13.2610 H     261  INH261      0.2003
      8  H2        20.4340   21.6040   13.8280 H     261  INH261      0.2003
      9  H3        21.2510   18.6940   13.6540 H     261  INH261      0.0973
     10  H4        21.2960   18.8160   16.1450 H     261  INH261      0.0377
     11  H5        20.9460   20.5760   16.0630 H     261  INH261      0.0377
     12  H6        20.5500   20.6380   12.4270 H     261  INH261      0.2003
     13  C4        22.9190   20.0230   15.4450 C.ar  261  INH261      0.0654
     14  C5        23.9770   19.0770   15.3030 C.ar  261  INH261      0.2837
     15  C6        23.6270   21.1880   15.4500 C.ar  261  INH261      0.1386
     16  C7        23.2810   22.6370   15.5590 C.3   261  INH261     -0.0034
     17  O3        23.6400   17.7970   15.2600 O.2   261  INH261     -0.2648
     18  N2        25.2040   19.5110   15.2210 N.ar  261  INH261     -0.1842
     19  O4        24.9800   20.9330   15.3200 O.2   261  INH261     -0.3815
     20  H7        24.2010   23.2380   15.5150 H     261  INH261      0.0309
     21  H8        22.7680   22.8210   16.5150 H     261  INH261      0.0309
     22  H9        22.6190   22.9190   14.7270 H     261  INH261      0.0309
     23  H10       26.0590   19.0020   15.1180 H     261  INH261      0.2107
@<TRIPOS>BOND
     1     1     2    1
     2     1     8    1
     3     1     7    1
     4     1    12    1
     5     2     5    1
     6     2     3    1
     7     2     9    1
     8     3     4   ar
     9     3     6   ar
    10     5    10    1
    11     5    11    1
    12     5    13    1
    13    13    15   ar
    14    13    14   ar
    15    14    18   ar
    16    14    17    2
    17    15    19   ar
    18    15    16    1
    19    16    22    1
    20    16    21    1
    21    16    20    1
    22    18    23    1
    23    18    19   ar
