@<TRIPOS>MOLECULE
/tmp/ewbell/vina_3dp4_3dp4_lig/vina/vina2.pdbqt
 19 19 0 0 0
SMALL
GASTEIGER

@<TRIPOS>ATOM
      1  C3        21.3270   19.7900   15.7010 C.3   261  INH261      0.0890
      2  C1        20.6680   19.6220   14.3020 C.3   261  INH261      0.2840
      3  N1        20.7790   20.9200   13.5490 N.4   261  INH261     -0.0650
      4  H2        21.4290   21.5930   14.0880 H     261  INH261      0.2750
      5  H1        21.1880   20.7320   12.5680 H     261  INH261      0.2750
      6  H6        19.8650   21.3350   13.4590 H     261  INH261      0.2750
      7  C2        19.1600   19.1880   14.4080 C.2   261  INH261      0.1710
      8  O1        18.2940   19.9650   13.9550 O.2   261  INH261     -0.6480
      9  O2        18.9110   18.0950   14.9400 O.3   261  INH261     -0.7750
     10  H         18.7400   17.3430   14.4080 H     261  INH261      0.1670
     11  C4        22.8410   19.8790   15.6320 C.2   261  INH261      0.0280
     12  C6        23.6960   20.9400   15.5960 C.3   261  INH261      0.0830
     13  O4        25.0070   20.5050   15.5300 O.3   261  INH261     -0.2400
     14  C7        23.5400   22.4260   15.6090 C.3   261  INH261      0.0790
     15  N2        25.0450   19.0620   15.5220 N.4   261  INH261     -0.2390
     16  C5        23.7690   18.7970   15.5830 C.2   261  INH261      0.1690
     17  H10       25.8280   18.4420   15.4790 H     261  INH261      0.1970
     18  O3        23.2680   17.5710   15.6020 O.2   261  INH261     -0.3440
     19  H3        22.7170   17.3390   16.3400 H     261  INH261      0.2190
@<TRIPOS>BOND
     1     5     3    1
     2     6     3    1
     3     3     4    1
     4     3     2    1
     5     8     7    2
     6     2     7    1
     7     2     1    1
     8     7     9    1
     9    10     9    1
    10    17    15    1
    11    15    13    1
    12    15    16    1
    13    13    12    1
    14    16    18    1
    15    16    11    2
    16    12    14    1
    17    12    11    1
    18    18    19    1
    19    11     1    1
