@<TRIPOS>MOLECULE
/tmp/ewbell/vina_3dp4_3dp4_lig/vina/vina1.pdbqt
 19 19 0 0 0
SMALL
GASTEIGER

@<TRIPOS>ATOM
      1  C3        21.4180   19.9750   15.4890 C.3   261  INH261      0.0890
      2  C1        20.6500   19.7090   14.1630 C.3   261  INH261      0.2840
      3  N1        20.6490   20.9670   13.3370 N.4   261  INH261     -0.0650
      4  H2        20.5920   20.7100   12.2900 H     261  INH261      0.2750
      5  H1        19.7950   21.5720   13.6060 H     261  INH261      0.2750
      6  H6        21.4960   21.4840   13.5110 H     261  INH261      0.2750
      7  C2        19.1730   19.2320   14.4210 C.2   261  INH261      0.1710
      8  O1        19.0040   18.1380   14.9980 O.2   261  INH261     -0.6480
      9  O2        18.2540   19.9690   14.0320 O.3   261  INH261     -0.7750
     10  H         17.6350   20.3100   14.6470 H     261  INH261      0.1670
     11  C4        22.6970   19.1650   15.6000 C.2   261  INH261      0.0280
     12  C6        22.9280   17.8500   15.8740 C.3   261  INH261      0.0830
     13  O4        24.2850   17.5840   15.8680 O.3   261  INH261     -0.2400
     14  C7        22.0700   16.6640   16.1720 C.3   261  INH261      0.0790
     15  N2        25.0200   18.7900   15.5720 N.4   261  INH261     -0.2390
     16  C5        24.0340   19.6330   15.4350 C.2   261  INH261      0.1690
     17  H10       26.0060   18.9380   15.4960 H     261  INH261      0.1970
     18  O3        24.1930   20.9180   15.1500 O.2   261  INH261     -0.3440
     19  H3        24.9110   21.1480   14.5720 H     261  INH261      0.2190
@<TRIPOS>BOND
     1     4     3    1
     2     3     6    1
     3     3     5    1
     4     3     2    1
     5     9     7    1
     6     9    10    1
     7     2     7    1
     8     2     1    1
     9     7     8    2
    10    19    18    1
    11    18    16    1
    12    16    15    1
    13    16    11    2
    14     1    11    1
    15    17    15    1
    16    15    13    1
    17    11    12    1
    18    13    12    1
    19    12    14    1
