@<TRIPOS>MOLECULE
/tmp/ewbell/vina_3dp4_3dp4_lig/vina/vina3.pdbqt
 19 19 0 0 0
SMALL
GASTEIGER

@<TRIPOS>ATOM
      1  C3        22.3290   19.4270   14.9860 C.3   261  INH261      0.0890
      2  C1        20.8270   19.5010   15.3850 C.3   261  INH261      0.2840
      3  N1        20.4360   18.2140   16.0580 N.4   261  INH261     -0.0650
      4  H2        19.9720   18.4320   17.0080 H     261  INH261      0.2750
      5  H1        19.7390   17.6780   15.4310 H     261  INH261      0.2750
      6  H6        21.2570   17.6490   16.2070 H     261  INH261      0.2750
      7  C2        19.8980   19.7640   14.1430 C.2   261  INH261      0.1710
      8  O1        18.8890   19.0410   14.0040 O.2   261  INH261     -0.6480
      9  O2        20.2200   20.6750   13.3650 O.3   261  INH261     -0.7750
     10  H         19.5600   21.2140   12.9770 H     261  INH261      0.1670
     11  C4        23.1810   20.4570   15.7060 C.2   261  INH261      0.0280
     12  C6        24.2340   20.3370   16.5630 C.3   261  INH261      0.0830
     13  O4        24.6790   21.5840   16.9620 O.3   261  INH261     -0.2400
     14  C7        24.9940   19.1940   17.1520 C.3   261  INH261      0.0790
     15  N2        23.8810   22.6120   16.3390 N.4   261  INH261     -0.2390
     16  C5        23.0570   21.8760   15.6450 C.2   261  INH261      0.1690
     17  H10       23.9410   23.6070   16.4200 H     261  INH261      0.1970
     18  O3        22.0970   22.3660   14.8750 O.2   261  INH261     -0.3440
     19  H3        22.2890   23.1650   14.3980 H     261  INH261      0.2190
@<TRIPOS>BOND
     1    10     9    1
     2     9     7    1
     3     8     7    2
     4     7     2    1
     5    19    18    1
     6    18    16    1
     7     1     2    1
     8     1    11    1
     9     2     3    1
    10     5     3    1
    11    16    11    2
    12    16    15    1
    13    11    12    1
    14     3     6    1
    15     3     4    1
    16    15    17    1
    17    15    13    1
    18    12    13    1
    19    12    14    1
