@<TRIPOS>MOLECULE
/tmp/ewbell/vina_3dp4_3dp4_lig/vina/vina5.pdbqt
 19 19 0 0 0
SMALL
GASTEIGER

@<TRIPOS>ATOM
      1  C3        22.7090   20.7400   16.5030 C.3   261  INH261      0.0890
      2  C1        23.7830   21.6720   15.8730 C.3   261  INH261      0.2840
      3  N1        24.7700   22.0720   16.9360 N.4   261  INH261     -0.0650
      4  H2        24.5800   21.5040   17.8340 H     261  INH261      0.2750
      5  H1        25.7730   21.8730   16.5880 H     261  INH261      0.2750
      6  H6        24.6720   23.0550   17.1320 H     261  INH261      0.2750
      7  C2        23.1440   22.9540   15.2210 C.2   261  INH261      0.1710
      8  O1        23.3770   24.0590   15.7540 O.2   261  INH261     -0.6480
      9  O2        22.4400   22.7970   14.2130 O.3   261  INH261     -0.7750
     10  H         21.5170   22.9520   14.2580 H     261  INH261      0.1670
     11  C4        22.3550   19.5630   15.6120 C.2   261  INH261      0.0280
     12  C6        22.9110   18.3280   15.4610 C.3   261  INH261      0.0830
     13  O4        22.2240   17.6000   14.5080 O.3   261  INH261     -0.2400
     14  C7        24.0640   17.6040   16.0760 C.3   261  INH261      0.0790
     15  N2        21.1360   18.3860   13.9790 N.4   261  INH261     -0.2390
     16  C5        21.2900   19.4840   14.6660 C.2   261  INH261      0.1690
     17  H10       20.4580   18.1560   13.2820 H     261  INH261      0.1970
     18  O3        20.5130   20.5500   14.5430 O.2   261  INH261     -0.3440
     19  H3        20.7470   21.1810   13.8710 H     261  INH261      0.2190
@<TRIPOS>BOND
     1    17    15    1
     2    19    18    1
     3    15    13    1
     4    15    16    1
     5     9    10    1
     6     9     7    1
     7    13    12    1
     8    18    16    1
     9    16    11    2
    10     7     8    2
    11     7     2    1
    12    12    11    1
    13    12    14    1
    14    11     1    1
    15     2     1    1
    16     2     3    1
    17     5     3    1
    18     3     6    1
    19     3     4    1
