@<TRIPOS>MOLECULE
/tmp/ewbell/vina_3dp4_3dp4_lig/vina/vina4.pdbqt
 19 19 0 0 0
SMALL
GASTEIGER

@<TRIPOS>ATOM
      1  C3        23.1320   20.3860   16.6970 C.3   261  INH261      0.0890
      2  C1        24.6050   20.2850   16.2080 C.3   261  INH261      0.2840
      3  N1        24.7500   21.0590   14.9260 N.4   261  INH261     -0.0650
      4  H2        24.7720   20.3730   14.0930 H     261  INH261      0.2750
      5  H1        23.9130   21.7330   14.8170 H     261  INH261      0.2750
      6  H6        25.6080   21.5890   14.9490 H     261  INH261      0.2750
      7  C2        25.0540   18.7920   15.9900 C.2   261  INH261      0.1710
      8  O1        25.0230   18.3360   14.8270 O.2   261  INH261     -0.6480
      9  O2        25.4120   18.1480   16.9870 O.3   261  INH261     -0.7750
     10  H         24.7960   17.9570   17.6670 H     261  INH261      0.1670
     11  C4        22.1270   20.0110   15.6220 C.2   261  INH261      0.0280
     12  C6        21.5620   18.8210   15.2720 C.3   261  INH261      0.0830
     13  O4        20.6940   18.9920   14.2090 O.3   261  INH261     -0.2400
     14  C7        21.6650   17.4150   15.7640 C.3   261  INH261      0.0790
     15  N2        20.6690   20.3780   13.8130 N.4   261  INH261     -0.2390
     16  C5        21.5130   20.8790   14.6730 C.2   261  INH261      0.1690
     17  H10       20.1530   20.8280   13.0840 H     261  INH261      0.1970
     18  O3        21.8450   22.1610   14.7230 O.2   261  INH261     -0.3440
     19  H3        21.1370   22.7940   14.6940 H     261  INH261      0.2190
@<TRIPOS>BOND
     1    17    15    1
     2    15    13    1
     3    15    16    1
     4     4     3    1
     5    13    12    1
     6    16    18    1
     7    16    11    2
     8    19    18    1
     9     5     3    1
    10     8     7    2
    11     3     6    1
    12     3     2    1
    13    12    11    1
    14    12    14    1
    15    11     1    1
    16     7     2    1
    17     7     9    1
    18     2     1    1
    19     9    10    1
