@<TRIPOS>MOLECULE
./ligand/2p09_lig.pdb
 43 45 0 0 0
SMALL
GASTEIGER

@<TRIPOS>ATOM
      1  P1        -3.2400   26.0270   20.6140 P.3   145  INH145      0.5373
      2  O1        -3.5630   25.4860   22.0040 O.3   145  INH145     -0.1143
      3  O2        -3.8050   25.1340   19.5150 O.3   145  INH145     -0.1143
      4  O3        -3.5840   27.5050   20.4060 O.2   145  INH145     -0.2221
      5  P2        -0.7210   25.7520   19.1450 P.3   145  INH145      0.2277
      6  O4        -1.6470   25.3820   17.9860 O.3   145  INH145     -0.4368
      7  O5         0.4760   24.8390   19.5070 O.2   145  INH145     -0.5168
      8  O6        -1.5900   25.9870   20.5070 O.3   145  INH145     -0.2258
      9  P3        -0.2770   28.6810   19.1860 P.3   145  INH145      0.2182
     10  O7        -1.7430   29.0980   19.4140 O.3   145  INH145     -0.4371
     11  O8         0.6920   28.9140   20.3340 O.2   145  INH145     -0.5170
     12  O9        -0.0910   27.1800   18.6420 O.3   145  INH145     -0.2700
     13  N1         1.5790   33.1250   16.7850 N.ar  145  INH145     -0.2877
     14  C1         0.6150   33.2490   17.7370 C.ar  145  INH145      0.0999
     15  N2         0.7750   34.4250   18.4050 N.ar  145  INH145     -0.2346
     16  C2         1.8340   35.0600   17.8760 C.ar  145  INH145      0.1287
     17  C3         2.5310   36.3250   18.1300 C.3   145  INH145      0.2004
     18  N3         2.1010   37.1530   19.1260 N.3   145  INH145     -0.2985
     19  N4         3.6300   36.6300   17.3590 N.2   145  INH145     -0.2420
     20  C4         4.0480   35.7750   16.3690 C.2   145  INH145      0.1049
     21  N5         3.4490   34.5930   16.0920 N.pl3 145  INH145     -0.1840
     22  C5         2.3640   34.1890   16.7960 C.ar  145  INH145      0.1528
     23  O10        0.2570   29.4780   17.9420 O.3   145  INH145     -0.3246
     24  C6        -0.3620   29.3290   16.6370 C.3   145  INH145      0.0836
     25  C7         0.5290   29.9810   15.5690 C.3   145  INH145      0.1133
     26  O11        0.4590   31.4100   15.6640 O.3   145  INH145     -0.3456
     27  C8         2.0060   29.6410   15.6620 C.3   145  INH145      0.1135
     28  O12        2.5910   29.7290   14.3410 O.3   145  INH145     -0.3864
     29  C9         2.5420   30.8290   16.4810 C.3   145  INH145      0.1285
     30  O13        3.9230   31.0820   16.3450 O.3   145  INH145     -0.3847
     31  C10        1.7420   31.9900   15.8340 C.3   145  INH145      0.1665
     32  H1        -0.1670   32.5180   17.9350 H     145  INH145      0.1030
     33  H2         2.5910   38.0420   19.3040 H     145  INH145      0.1209
     34  H3         1.2870   36.8890   19.6990 H     145  INH145      0.1209
     35  H4         4.9080   36.0630   15.7750 H     145  INH145      0.1015
     36  H5        -1.3470   29.8180   16.6410 H     145  INH145      0.0591
     37  H6        -0.4840   28.2600   16.4090 H     145  INH145      0.0591
     38  H7         0.1580   29.6590   14.5850 H     145  INH145      0.0647
     39  H8         2.1960   28.6640   16.1310 H     145  INH145      0.0647
     40  H9         3.5160   29.5170   14.3910 H     145  INH145      0.2100
     41  H10        2.3030   30.7070   17.5480 H     145  INH145      0.0665
     42  H11        4.4140   30.3720   16.7410 H     145  INH145      0.2101
     43  H12        2.1910   32.3250   14.8880 H     145  INH145      0.0866
@<TRIPOS>BOND
     1     1     8    1
     2     1     4    2
     3     1     3    1
     4     1     2    1
     5     5    12    1
     6     5     8    1
     7     5     7    2
     8     5     6    1
     9     9    23    1
    10     9    12    1
    11     9    11    2
    12     9    10    1
    13    13    31    1
    14    13    22   ar
    15    13    14   ar
    16    14    32    1
    17    14    15   ar
    18    15    16   ar
    19    16    22   ar
    20    16    17    1
    21    17    19    1
    22    17    18    1
    23    18    34    1
    24    18    33    1
    25    19    20    2
    26    20    35    1
    27    20    21    1
    28    21    22    1
    29    23    24    1
    30    24    37    1
    31    24    36    1
    32    24    25    1
    33    25    38    1
    34    25    27    1
    35    25    26    1
    36    26    31    1
    37    27    29    1
    38    27    39    1
    39    27    28    1
    40    28    40    1
    41    29    31    1
    42    29    41    1
    43    29    30    1
    44    30    42    1
    45    31    43    1
