@<TRIPOS>MOLECULE
/tmp/ewbell/vina_2p09_2p09_lig/vina/vina2.pdbqt
 42 44 0 0 0
SMALL
GASTEIGER

@<TRIPOS>ATOM
      1  C7        -1.0850   30.6380   17.0060 C.3   145  INH145      0.1800
      2  O11       -0.5420   31.8910   16.5680 O.3   145  INH145     -0.3530
      3  C8         0.0960   29.6870   17.0740 C.3   145  INH145      0.1820
      4  C9         1.2590   30.6610   17.3350 C.3   145  INH145      0.1980
      5  C10        0.8620   31.8210   16.3840 C.3   145  INH145      0.2620
      6  C6        -1.8580   30.8190   18.3210 C.3   145  INH145      0.2150
      7  O10       -2.6010   32.0660   18.2790 O.3   145  INH145     -0.2940
      8  P3        -3.5760   32.4650   19.4440 P.3   145  INH145      0.4010
      9  O8        -3.9590   33.9230   19.2470 O.2   145  INH145     -0.6310
     10  O9        -2.5660   32.3550   20.6890 O.3   145  INH145     -0.1950
     11  P2        -2.6770   31.5540   22.1160 P.3   145  INH145      0.4100
     12  O5        -2.1610   30.1160   21.8620 O.2   145  INH145     -0.6310
     13  O6        -1.6830   32.2460   23.2110 O.3   145  INH145     -0.1950
     14  P1        -1.9060   33.7160   23.9350 P.3   145  INH145      0.3990
     15  O3        -2.9460   33.4330   25.0230 O.2   145  INH145     -0.6310
     16  O2        -0.5670   34.1670   24.5080 O.3   145  INH145     -0.3070
     17  H          0.1280   34.0430   23.8430 H     145  INH145      0.2220
     18  O1        -2.3850   34.6420   22.8200 O.3   145  INH145     -0.3070
     19  H         -2.7840   34.1140   22.1110 H     145  INH145      0.2220
     20  O4        -4.1360   31.7890   22.5050 O.3   145  INH145     -0.3070
     21  H         -4.1940   32.5610   23.0910 H     145  INH145      0.2220
     22  O7        -4.7250   31.4390   19.4640 O.3   145  INH145     -0.3070
     23  H         -4.5770   30.8020   20.1810 H     145  INH145      0.2220
     24  O12        0.3060   29.1060   15.7650 O.3   145  INH145     -0.3900
     25  H9         0.8240   28.3140   15.8510 H     145  INH145      0.2100
     26  O13        2.5380   30.1840   16.9810 O.3   145  INH145     -0.3880
     27  H11        2.9950   30.8500   16.4820 H     145  INH145      0.2100
     28  N1         1.4240   33.1180   16.8550 N.pl3 145  INH145     -0.2970
     29  C5         0.9030   33.8250   17.8440 C.2   145  INH145      0.1380
     30  C2         1.7810   35.0140   17.9850 C.2   145  INH145      0.1070
     31  N5        -0.1690   33.6920   18.6630 N.pl3 145  INH145     -0.3370
     32  N2         2.7480   34.8960   17.0600 N.pl3 145  INH145     -0.3490
     33  C3         1.4290   35.9990   19.0130 C.3   145  INH145      0.6860
     34  C1         2.5350   33.7380   16.3760 C.3   145  INH145      0.1870
     35  H2         3.5080   35.5570   16.8990 H     145  INH145      0.1660
     36  N4         0.3110   35.7670   19.7820 N.3   145  INH145     -0.3520
     37  C4        -0.4410   34.6330   19.5980 C.3   145  INH145      0.1790
     38  H4         0.0400   36.4430   20.4960 H     145  INH145      0.1620
     39  H         -0.7540   32.9050   18.5770 H     145  INH145      0.1680
     40  N3         2.1880   37.1220   19.1700 N.3   145  INH145     -0.0950
     41  H3         1.7400   38.0490   19.1750 H     145  INH145      0.2600
     42  H2         3.2090   37.0420   19.2840 H     145  INH145      0.2600
@<TRIPOS>BOND
     1    24    25    1
     2    24     3    1
     3    34    28    1
     4    34    32    1
     5     5     2    1
     6     5    28    1
     7     5     4    1
     8    27    26    1
     9     2     1    1
    10    28    29    1
    11    35    32    1
    12    26     4    1
    13     1     3    1
    14     1     6    1
    15    32    30    1
    16     3     4    1
    17    29    30    2
    18    29    31    1
    19    30    33    1
    20     7     6    1
    21     7     8    1
    22    39    31    1
    23    31    37    1
    24    33    40    1
    25    33    36    1
    26    40    41    1
    27    40    42    1
    28     9     8    2
    29     8    22    1
    30     8    10    1
    31    22    23    1
    32    37    36    1
    33    36    38    1
    34    10    11    1
    35    12    11    2
    36    19    18    1
    37    11    20    1
    38    11    13    1
    39    20    21    1
    40    18    14    1
    41    13    14    1
    42    17    16    1
    43    14    16    1
    44    14    15    2
