@<TRIPOS>MOLECULE
/tmp/ewbell/vina_2p09_2p09_lig/vina/vina5.pdbqt
 42 44 0 0 0
SMALL
GASTEIGER

@<TRIPOS>ATOM
      1  C7         8.1770   24.8760   10.9710 C.3   145  INH145      0.1800
      2  O11        7.6470   26.0390   11.6200 O.3   145  INH145     -0.3530
      3  C8         7.7210   24.9740    9.5260 C.3   145  INH145      0.1820
      4  C9         7.5760   26.4970    9.3550 C.3   145  INH145      0.1980
      5  C10        6.9300   26.8650   10.7170 C.3   145  INH145      0.2620
      6  C6         9.6980   24.7950   11.1750 C.3   145  INH145      0.2150
      7  O10       10.1200   25.8380   12.0930 O.3   145  INH145     -0.2940
      8  P3        11.5520   25.8150   12.7390 P.3   145  INH145      0.4010
      9  O8        12.5310   25.3480   11.6750 O.2   145  INH145     -0.6310
     10  O9        11.3430   24.6340   13.8100 O.3   145  INH145     -0.1950
     11  P2        10.3240   24.4880   15.0870 P.3   145  INH145      0.4100
     12  O5        11.0910   23.7080   16.1830 O.2   145  INH145     -0.6310
     13  O6         9.9810   25.9670   15.6850 O.3   145  INH145     -0.1950
     14  P1         8.5740   26.8070   15.4580 P.3   145  INH145      0.3990
     15  O3         7.4870   25.7320   15.5590 O.2   145  INH145     -0.6310
     16  O2         8.4660   27.8530   16.5620 O.3   145  INH145     -0.3070
     17  H          7.7540   27.6070   17.1730 H     145  INH145      0.2220
     18  O1         8.7100   27.4490   14.0810 O.3   145  INH145     -0.3070
     19  H          7.9430   28.0190   13.9120 H     145  INH145      0.2220
     20  O4         9.0800   23.8790   14.4390 O.3   145  INH145     -0.3070
     21  H          9.1730   22.9140   14.4030 H     145  INH145      0.2220
     22  O7        11.8060   27.2010   13.3620 O.3   145  INH145     -0.3070
     23  H         12.4270   27.6960   12.8060 H     145  INH145      0.2220
     24  O12        6.3980   24.4000    9.4130 O.3   145  INH145     -0.3900
     25  H9         5.8210   25.0200    8.9820 H     145  INH145      0.2100
     26  O13        6.7250   26.9090    8.3090 O.3   145  INH145     -0.3880
     27  H11        7.2380   27.0540    7.5230 H     145  INH145      0.2100
     28  N1         7.2320   28.2750   11.0900 N.pl3 145  INH145     -0.2970
     29  C5         8.4350   28.8150   10.9990 C.2   145  INH145      0.1380
     30  C2         8.2730   30.2210   11.4510 C.2   145  INH145      0.1070
     31  N5         9.6610   28.3790   10.6210 N.pl3 145  INH145     -0.3370
     32  N2         6.9770   30.3820   11.7670 N.pl3 145  INH145     -0.3490
     33  C3         9.4690   31.0690   11.4700 C.3   145  INH145      0.6860
     34  C1         6.3410   29.1990   11.5420 C.3   145  INH145      0.1870
     35  H2         6.5470   31.2390   12.1130 H     145  INH145      0.1660
     36  N4        10.6660   30.5170   11.0730 N.3   145  INH145     -0.3520
     37  C4        10.7280   29.2100   10.6550 C.3   145  INH145      0.1790
     38  H4        11.5140   31.0840   11.0890 H     145  INH145      0.1620
     39  H          9.7760   27.4490   10.3180 H     145  INH145      0.1680
     40  N3         9.3820   32.3620   11.8980 N.3   145  INH145     -0.0950
     41  H3         9.5370   32.5870   12.8910 H     145  INH145      0.2600
     42  H2         9.1600   33.1120   11.2280 H     145  INH145      0.2600
@<TRIPOS>BOND
     1    27    26    1
     2    26     4    1
     3    25    24    1
     4     4     3    1
     5     4     5    1
     6    24     3    1
     7     3     1    1
     8    39    31    1
     9    31    37    1
    10    31    29    1
    11    37    36    1
    12     5    28    1
    13     5     2    1
    14     1     6    1
    15     1     2    1
    16    29    28    1
    17    29    30    2
    18    36    38    1
    19    36    33    1
    20    28    34    1
    21     6     7    1
    22    42    40    1
    23    30    33    1
    24    30    32    1
    25    33    40    1
    26    34    32    1
    27     9     8    2
    28    32    35    1
    29    40    41    1
    30     7     8    1
    31     8    22    1
    32     8    10    1
    33    23    22    1
    34    10    11    1
    35    19    18    1
    36    18    14    1
    37    21    20    1
    38    20    11    1
    39    11    13    1
    40    11    12    2
    41    14    15    2
    42    14    13    1
    43    14    16    1
    44    16    17    1
