@<TRIPOS>MOLECULE
/tmp/ewbell/vina_2p09_2p09_lig/vina/vina3.pdbqt
 42 44 0 0 0
SMALL
GASTEIGER

@<TRIPOS>ATOM
      1  C7         4.8790   28.9220   11.9960 C.3   145  INH145      0.1800
      2  O11        5.8380   27.8770   11.7870 O.3   145  INH145     -0.3530
      3  C8         4.9380   29.2340   13.4810 C.3   145  INH145      0.1820
      4  C9         6.3840   28.8310   13.8210 C.3   145  INH145      0.1980
      5  C10        6.5070   27.5280   12.9880 C.3   145  INH145      0.2620
      6  C6         5.1680   30.1080   11.0640 C.3   145  INH145      0.2150
      7  O10        6.3800   29.8470   10.3080 O.3   145  INH145     -0.2940
      8  P3         6.9930   30.9410    9.3610 P.3   145  INH145      0.4010
      9  O8         6.4940   30.6640    7.9520 O.2   145  INH145     -0.6310
     10  O9         8.5450   30.5350    9.4540 O.3   145  INH145     -0.1950
     11  P2         9.6940   30.8690   10.5760 P.3   145  INH145      0.4100
     12  O5        10.7730   29.7660   10.4510 O.2   145  INH145     -0.6310
     13  O6        10.4060   32.2950   10.2220 O.3   145  INH145     -0.1950
     14  P1        10.7300   33.5130   11.2930 P.3   145  INH145      0.3990
     15  O3        11.5470   34.5150   10.4710 O.2   145  INH145     -0.6310
     16  O2         9.4010   34.0910   11.7660 O.3   145  INH145     -0.3070
     17  H          9.4930   34.4110   12.6770 H     145  INH145      0.2220
     18  O1        11.4960   32.8480   12.4330 O.3   145  INH145     -0.3070
     19  H         11.2520   33.2670   13.2740 H     145  INH145      0.2220
     20  O4         8.8680   30.9950   11.8560 O.3   145  INH145     -0.3070
     21  H          8.6160   30.1120   12.1670 H     145  INH145      0.2220
     22  O7         6.6590   32.3200    9.9620 O.3   145  INH145     -0.3070
     23  H          6.1180   32.2030   10.7590 H     145  INH145      0.2220
     24  O12        4.0600   28.3250   14.1860 O.3   145  INH145     -0.3900
     25  H9         4.4900   28.0210   14.9760 H     145  INH145      0.2100
     26  O13        6.6260   28.5400   15.1790 O.3   145  INH145     -0.3880
     27  H11        7.0750   27.7060   15.2480 H     145  INH145      0.2100
     28  N1         7.9260   27.2530   12.6270 N.pl3 145  INH145     -0.2970
     29  C5         8.8430   26.8750   13.5000 C.2   145  INH145      0.1380
     30  C2        10.0900   26.6990   12.7130 C.2   145  INH145      0.1070
     31  N5         8.8660   26.6470   14.8360 N.pl3 145  INH145     -0.3370
     32  N2         9.7900   26.9900   11.4360 N.pl3 145  INH145     -0.3490
     33  C3        11.2980   26.2900   13.4380 C.3   145  INH145      0.6860
     34  C1         8.4700   27.3220   11.3820 C.3   145  INH145      0.1870
     35  H2        10.4360   26.9660   10.6480 H     145  INH145      0.1660
     36  N4        11.2070   26.0960   14.7980 N.3   145  INH145     -0.3520
     37  C4        10.0110   26.2670   15.4500 C.3   145  INH145      0.1790
     38  H4        12.0370   25.8230   15.3250 H     145  INH145      0.1620
     39  H          8.0430   26.7600   15.3650 H     145  INH145      0.1680
     40  N3        12.4770   26.1370   12.7680 N.3   145  INH145     -0.0950
     41  H3        13.1240   25.3800   13.0320 H     145  INH145      0.2600
     42  H2        12.7190   26.7770   11.9970 H     145  INH145      0.2600
@<TRIPOS>BOND
     1     9     8    2
     2     8    10    1
     3     8    22    1
     4     8     7    1
     5    10    11    1
     6    22    23    1
     7    13    11    1
     8    13    14    1
     9     7     6    1
    10    12    11    2
    11    15    14    2
    12    11    20    1
    13    35    32    1
    14     6     1    1
    15    14    16    1
    16    14    18    1
    17    34    32    1
    18    34    28    1
    19    32    30    1
    20    16    17    1
    21     2     1    1
    22     2     5    1
    23    20    21    1
    24     1     3    1
    25    42    40    1
    26    18    19    1
    27    28     5    1
    28    28    29    1
    29    30    33    1
    30    30    29    2
    31    40    41    1
    32    40    33    1
    33     5     4    1
    34    33    36    1
    35     3     4    1
    36     3    24    1
    37    29    31    1
    38     4    26    1
    39    24    25    1
    40    36    38    1
    41    36    37    1
    42    31    39    1
    43    31    37    1
    44    26    27    1
