@<TRIPOS>MOLECULE
/tmp/ewbell/vina_2p09_2p09_lig/vina/vina1.pdbqt
 42 44 0 0 0
SMALL
GASTEIGER

@<TRIPOS>ATOM
      1  C7         9.7670   28.7690   11.9160 C.3   145  INH145      0.1800
      2  O11       10.3680   30.0700   11.9540 O.3   145  INH145     -0.3530
      3  C8         8.3490   28.9920   11.4230 C.3   145  INH145      0.1820
      4  C9         8.5130   30.2750   10.5890 C.3   145  INH145      0.1980
      5  C10        9.4730   31.0760   11.5070 C.3   145  INH145      0.2620
      6  C6        10.6150   27.8120   11.0630 C.3   145  INH145      0.2150
      7  O10       10.5520   26.4750   11.6260 O.3   145  INH145     -0.2940
      8  P3        11.7340   25.9050   12.4900 P.3   145  INH145      0.4010
      9  O8        12.6750   25.1650   11.5530 O.2   145  INH145     -0.6310
     10  O9        10.9260   24.8320   13.3730 O.3   145  INH145     -0.1950
     11  P2         9.9870   25.0030   14.7070 P.3   145  INH145      0.4100
     12  O5        10.9440   25.0490   15.9230 O.2   145  INH145     -0.6310
     13  O6         9.2030   26.4340   14.6430 O.3   145  INH145     -0.1950
     14  P1         7.9960   26.9280   15.6600 P.3   145  INH145      0.3990
     15  O3         7.4950   28.2300   15.0280 O.2   145  INH145     -0.6310
     16  O2         6.9270   25.8400   15.6860 O.3   145  INH145     -0.3070
     17  H          7.0150   25.3190   16.4990 H     145  INH145      0.2220
     18  O1         8.6640   27.0950   17.0220 O.3   145  INH145     -0.3070
     19  H          9.4720   26.5590   17.0540 H     145  INH145      0.2220
     20  O4         8.9940   23.8510   14.5520 O.3   145  INH145     -0.3070
     21  H          8.1290   24.2020   14.2910 H     145  INH145      0.2220
     22  O7        12.3290   27.0750   13.2970 O.3   145  INH145     -0.3070
     23  H         12.7120   26.7360   14.1220 H     145  INH145      0.2220
     24  O12        7.5050   29.3170   12.5530 O.3   145  INH145     -0.3900
     25  H9         7.9070   28.9910   13.3500 H     145  INH145      0.2100
     26  O13        7.3320   31.0200   10.3870 O.3   145  INH145     -0.3880
     27  H11        6.9450   31.2300   11.2280 H     145  INH145      0.2100
     28  N1        10.2790   32.0510   10.7210 N.pl3 145  INH145     -0.2970
     29  C5        10.3660   33.3370   11.0180 C.2   145  INH145      0.1380
     30  C2        11.2750   33.9180    9.9970 C.2   145  INH145      0.1070
     31  N5         9.8360   34.1440   11.9690 N.pl3 145  INH145     -0.3370
     32  N2        11.6450   32.9130    9.1870 N.pl3 145  INH145     -0.3490
     33  C3        11.5450   35.3570   10.0710 C.3   145  INH145      0.6860
     34  C1        11.0440   31.7740    9.6310 C.3   145  INH145      0.1870
     35  H2        12.2670   32.9890    8.3830 H     145  INH145      0.1660
     36  N4        10.9440   36.0830   11.0750 N.3   145  INH145     -0.3520
     37  C4        10.1260   35.4660   11.9890 C.3   145  INH145      0.1790
     38  H4        11.1080   37.0880   11.1390 H     145  INH145      0.1620
     39  H          9.2340   33.7660   12.6500 H     145  INH145      0.1680
     40  N3        12.3550   35.9480    9.1440 N.3   145  INH145     -0.0950
     41  H3        12.4670   35.5230    8.2130 H     145  INH145      0.2600
     42  H2        12.8530   36.8190    9.3770 H     145  INH145      0.2600
@<TRIPOS>BOND
     1    41    40    1
     2    35    32    1
     3    40    42    1
     4    40    33    1
     5    32    34    1
     6    32    30    1
     7    34    28    1
     8    30    33    1
     9    30    29    2
    10    33    36    1
    11    26     4    1
    12    26    27    1
    13     4     3    1
    14     4     5    1
    15    28    29    1
    16    28     5    1
    17    29    31    1
    18     6     7    1
    19     6     1    1
    20    36    38    1
    21    36    37    1
    22     3     1    1
    23     3    24    1
    24     5     2    1
    25     9     8    2
    26     7     8    1
    27     1     2    1
    28    31    37    1
    29    31    39    1
    30     8    22    1
    31     8    10    1
    32    24    25    1
    33    22    23    1
    34    10    11    1
    35    21    20    1
    36    20    11    1
    37    13    11    1
    38    13    14    1
    39    11    12    2
    40    15    14    2
    41    14    16    1
    42    14    18    1
    43    16    17    1
    44    18    19    1
