@<TRIPOS>MOLECULE
/tmp/ewbell/vina_2p09_2p09_lig/vina/vina4.pdbqt
 42 44 0 0 0
SMALL
GASTEIGER

@<TRIPOS>ATOM
      1  C7         1.8820   29.9260   15.5210 C.3   145  INH145      0.1800
      2  O11        1.4730   30.5120   16.7640 O.3   145  INH145     -0.3530
      3  C8         0.7150   30.1350   14.5720 C.3   145  INH145      0.1820
      4  C9         0.0650   31.4000   15.1600 C.3   145  INH145      0.1980
      5  C10        0.1800   31.0880   16.6750 C.3   145  INH145      0.2620
      6  C6         3.2180   30.5280   15.0590 C.3   145  INH145      0.2150
      7  O10        3.1890   30.7250   13.6210 O.3   145  INH145     -0.2940
      8  P3         4.0340   29.8100   12.6630 P.3   145  INH145      0.4010
      9  O8         3.0910   28.7880   12.0490 O.2   145  INH145     -0.6310
     10  O9         4.9660   29.0760   13.7470 O.3   145  INH145     -0.1950
     11  P2         6.4660   28.4220   13.6320 P.3   145  INH145      0.4100
     12  O5         7.3430   29.4490   12.8760 O.2   145  INH145     -0.6310
     13  O6         7.0990   28.2390   15.1260 O.3   145  INH145     -0.1950
     14  P1         8.1110   27.0250   15.6130 P.3   145  INH145      0.3990
     15  O3         9.2810   27.1080   14.6270 O.2   145  INH145     -0.6310
     16  O2         8.5340   27.3120   17.0490 O.3   145  INH145     -0.3070
     17  H          9.1500   28.0610   17.0620 H     145  INH145      0.2220
     18  O1         7.2810   25.7490   15.5110 O.3   145  INH145     -0.3070
     19  H          6.3560   25.9470   15.7250 H     145  INH145      0.2220
     20  O4         6.1750   27.0550   13.0120 O.3   145  INH145     -0.3070
     21  H          5.4500   27.1370   12.3730 H     145  INH145      0.2220
     22  O7         4.7960   30.7310   11.6890 O.3   145  INH145     -0.3070
     23  H          4.1620   31.2870   11.2090 H     145  INH145      0.2220
     24  O12       -0.2270   29.0480   14.7420 O.3   145  INH145     -0.3900
     25  H9        -0.8110   29.2470   15.4640 H     145  INH145      0.2100
     26  O13       -1.2910   31.5940   14.8250 O.3   145  INH145     -0.3880
     27  H11       -1.8360   31.3450   15.5610 H     145  INH145      0.2100
     28  N1         0.2090   32.3400   17.4810 N.pl3 145  INH145     -0.2970
     29  C5         1.1320   33.2770   17.3430 C.2   145  INH145      0.1380
     30  C2         0.7670   34.3370   18.3170 C.2   145  INH145      0.1070
     31  N5         2.2340   33.4380   16.5720 N.pl3 145  INH145     -0.3370
     32  N2        -0.3480   33.9250   18.9430 N.pl3 145  INH145     -0.3490
     33  C3         1.6390   35.5140   18.3980 C.3   145  INH145      0.6860
     34  C1        -0.6920   32.7110   18.4300 C.3   145  INH145      0.1870
     35  H2        -0.8480   34.4320   19.6730 H     145  INH145      0.1660
     36  N4         2.7390   35.5670   17.5720 N.3   145  INH145     -0.3520
     37  C4         2.9990   34.5490   16.6870 C.3   145  INH145      0.1790
     38  H4         3.3670   36.3700   17.6180 H     145  INH145      0.1620
     39  H          2.4810   32.7410   15.9220 H     145  INH145      0.1680
     40  N3         1.3640   36.5070   19.2920 N.3   145  INH145     -0.0950
     41  H3         1.2250   36.2800   20.2870 H     145  INH145      0.2600
     42  H2         1.2960   37.4840   18.9710 H     145  INH145      0.2600
@<TRIPOS>BOND
     1    23    22    1
     2    22     8    1
     3     9     8    2
     4    21    20    1
     5     8     7    1
     6     8    10    1
     7    12    11    2
     8    20    11    1
     9     7     6    1
    10    11    10    1
    11    11    13    1
    12     3    24    1
    13     3     4    1
    14     3     1    1
    15    15    14    2
    16    24    25    1
    17    26     4    1
    18    26    27    1
    19     6     1    1
    20    13    14    1
    21     4     5    1
    22    18    14    1
    23    18    19    1
    24     1     2    1
    25    14    16    1
    26    39    31    1
    27    31    37    1
    28    31    29    1
    29     5     2    1
    30     5    28    1
    31    37    36    1
    32    16    17    1
    33    29    28    1
    34    29    30    2
    35    28    34    1
    36    36    38    1
    37    36    33    1
    38    30    33    1
    39    30    32    1
    40    33    40    1
    41    34    32    1
    42    32    35    1
    43    42    40    1
    44    40    41    1
