@<TRIPOS>MOLECULE
./ligand/3bu1_lig.pdb
 18 18 0 0 0
SMALL
GASTEIGER

@<TRIPOS>ATOM
      1  N1        18.1750   22.9850    7.5870 N.4   147  INH147      0.2188
      2  C1        17.3610   23.1390    8.7890 C.3   147  INH147     -0.0298
      3  C2        16.2830   24.1870    8.5480 C.3   147  INH147      0.0312
      4  C3        15.5020   24.4820    9.8120 C.ar  147  INH147      0.0638
      5  N2        16.0040   24.9860   10.9670 N.ar  147  INH147     -0.2407
      6  C4        14.1430   24.2900    9.9970 C.ar  147  INH147      0.0245
      7  C5        14.9900   25.1060   11.8470 C.ar  147  INH147      0.0936
      8  N3        13.8510   24.6830   11.2560 N.ar  147  INH147     -0.3506
      9  H1        18.8870   22.2910    7.7500 H     147  INH147      0.1994
     10  H2        18.6100   23.8660    7.3610 H     147  INH147      0.1994
     11  H3        17.5900   22.6920    6.8200 H     147  INH147      0.1994
     12  H4        18.0000   23.4580    9.6250 H     147  INH147      0.0817
     13  H5        16.8870   22.1770    9.0360 H     147  INH147      0.0817
     14  H6        15.5900   23.8160    7.7780 H     147  INH147      0.0381
     15  H7        16.7590   25.1150    8.1970 H     147  INH147      0.0381
     16  H8        13.4410   23.8960    9.2640 H     147  INH147      0.0825
     17  H9        15.0750   25.4820   12.8660 H     147  INH147      0.1027
     18  H10       12.9180   24.6630   11.6920 H     147  INH147      0.1662
@<TRIPOS>BOND
     1     1    11    1
     2     1    10    1
     3     1     9    1
     4     1     2    1
     5     2    13    1
     6     2    12    1
     7     2     3    1
     8     3    15    1
     9     3    14    1
    10     3     4    1
    11     4     6   ar
    12     4     5   ar
    13     5     7   ar
    14     6     8   ar
    15     6    16    1
    16     7    17    1
    17     7     8   ar
    18     8    18    1
