@<TRIPOS>MOLECULE
/tmp/ewbell/vina_3bu1_3bu1_lig/vina/vina4.pdbqt
 13 13 0 0 0
SMALL
GASTEIGER

@<TRIPOS>ATOM
      1  C3        14.5860   24.7630   10.1030 C.2   147  INH147      0.0270
      2  N2        14.1190   23.5090   10.3250 N.pl3 147  INH147     -0.3550
      3  H2        13.4990   23.2260   11.0850 H     147  INH147      0.1660
      4  C4        15.3910   24.7140    8.9770 C.2   147  INH147      0.1140
      5  C5        14.6150   22.7020    9.3660 C.3   147  INH147      0.1800
      6  N3        15.3910   23.4350    8.5400 N.pl3 147  INH147     -0.3600
      7  H10       15.8980   23.0810    7.7170 H     147  INH147      0.1660
      8  C2        14.2820   25.9940   10.9320 C.3   147  INH147      0.0850
      9  C1        13.3330   25.6740   12.0790 C.3   147  INH147      0.2350
     10  N1        14.0940   25.5090   13.3140 N.4   147  INH147     -0.0790
     11  H3        14.8470   24.8570   13.1600 H     147  INH147      0.2740
     12  H2        14.4720   26.3990   13.5980 H     147  INH147      0.2740
     13  H1        13.4870   25.1560   14.0380 H     147  INH147      0.2740
@<TRIPOS>BOND
     1     7     6    1
     2     6     4    1
     3     6     5    1
     4     4     1    2
     5     5     2    1
     6     1     2    1
     7     1     8    1
     8     2     3    1
     9     8     9    1
    10     9    10    1
    11    11    10    1
    12    10    12    1
    13    10    13    1
