@<TRIPOS>MOLECULE
/tmp/ewbell/vina_3bu1_3bu1_lig/vina/vina2.pdbqt
 13 13 0 0 0
SMALL
GASTEIGER

@<TRIPOS>ATOM
      1  C3        14.9480   24.1180   10.6460 C.2   147  INH147      0.0270
      2  N2        16.0190   24.7190   10.0690 N.pl3 147  INH147     -0.3550
      3  H2        16.5960   25.4470   10.4900 H     147  INH147      0.1660
      4  C4        14.4510   23.1940    9.7430 C.2   147  INH147      0.1140
      5  C5        16.1870   24.1850    8.8430 C.3   147  INH147      0.1800
      6  N3        15.2320   23.2520    8.6410 N.pl3 147  INH147     -0.3600
      7  H10       15.1170   22.6810    7.7920 H     147  INH147      0.1660
      8  C2        14.3970   24.4030   12.0280 C.3   147  INH147      0.0850
      9  C1        13.3320   25.4910   11.9920 C.3   147  INH147      0.2350
     10  N1        12.0060   24.8820   11.9840 N.4   147  INH147     -0.0790
     11  H3        11.3090   25.5920   12.1490 H     147  INH147      0.2740
     12  H2        11.8400   24.4490   11.0890 H     147  INH147      0.2740
     13  H1        11.9520   24.1830   12.7100 H     147  INH147      0.2740
@<TRIPOS>BOND
     1     7     6    1
     2     6     5    1
     3     6     4    1
     4     5     2    1
     5     4     1    2
     6     2     3    1
     7     2     1    1
     8     1     8    1
     9    12    10    1
    10    10     9    1
    11    10    11    1
    12    10    13    1
    13     9     8    1
