@<TRIPOS>MOLECULE
/tmp/ewbell/vina_3bu1_3bu1_lig/vina/vina3.pdbqt
 13 13 0 0 0
SMALL
GASTEIGER

@<TRIPOS>ATOM
      1  C3        16.0360   24.1190    9.2240 C.2   147  INH147      0.0270
      2  N2        17.0280   24.7040    8.5080 N.pl3 147  INH147     -0.3550
      3  H2        17.0480   25.6750    8.1960 H     147  INH147      0.1660
      4  C4        16.3980   22.7990    9.4370 C.2   147  INH147      0.1140
      5  C5        17.9810   23.7790    8.2800 C.3   147  INH147      0.1800
      6  N3        17.6010   22.6150    8.8480 N.pl3 147  INH147     -0.3600
      7  H10       18.1350   21.7350    8.8350 H     147  INH147      0.1660
      8  C2        14.7650   24.7860    9.7090 C.3   147  INH147      0.0850
      9  C1        14.0230   23.9130   10.7110 C.3   147  INH147      0.2350
     10  N1        14.4590   24.2380   12.0660 N.4   147  INH147     -0.0790
     11  H3        15.2190   24.8990   12.0240 H     147  INH147      0.2740
     12  H2        13.6910   24.6410   12.5790 H     147  INH147      0.2740
     13  H1        14.7690   23.3990   12.5300 H     147  INH147      0.2740
@<TRIPOS>BOND
     1     3     2    1
     2     5     2    1
     3     5     6    1
     4     2     1    1
     5     7     6    1
     6     6     4    1
     7     1     4    2
     8     1     8    1
     9     8     9    1
    10     9    10    1
    11    11    10    1
    12    10    13    1
    13    10    12    1
