@<TRIPOS>MOLECULE
/tmp/ewbell/vina_3bu1_3bu1_lig/vina/vina1.pdbqt
 13 13 0 0 0
SMALL
GASTEIGER

@<TRIPOS>ATOM
      1  C3        15.2790   24.2450    9.7670 C.2   147  INH147      0.0270
      2  N2        15.7220   24.9090   10.8650 N.pl3 147  INH147     -0.3550
      3  H2        16.4950   25.5740   10.8910 H     147  INH147      0.1660
      4  C4        14.2200   23.4460   10.1630 C.2   147  INH147      0.1140
      5  C5        14.9610   24.5360   11.9140 C.3   147  INH147      0.1800
      6  N3        14.0410   23.6440   11.4880 N.pl3 147  INH147     -0.3600
      7  H10       13.3250   23.1910   12.0720 H     147  INH147      0.1660
      8  C2        15.8380   24.3600    8.3640 C.3   147  INH147      0.0850
      9  C1        17.3420   24.1270    8.3410 C.3   147  INH147      0.2350
     10  N1        17.6370   22.7710    8.7960 N.4   147  INH147     -0.0790
     11  H3        16.8160   22.3750    9.2260 H     147  INH147      0.2740
     12  H2        17.9110   22.2050    8.0080 H     147  INH147      0.2740
     13  H1        18.3880   22.7980    9.4670 H     147  INH147      0.2740
@<TRIPOS>BOND
     1    12    10    1
     2     9     8    1
     3     9    10    1
     4     8     1    1
     5    10    11    1
     6    10    13    1
     7     1     4    2
     8     1     2    1
     9     4     6    1
    10     2     3    1
    11     2     5    1
    12     6     5    1
    13     6     7    1
