@<TRIPOS>MOLECULE
/tmp/ewbell/vina_3bu1_3bu1_lig/vina/vina5.pdbqt
 13 13 0 0 0
SMALL
GASTEIGER

@<TRIPOS>ATOM
      1  C3        13.2290   25.0030   11.6090 C.2   147  INH147      0.0270
      2  N2        11.9690   25.0810   12.1050 N.pl3 147  INH147     -0.3550
      3  H2        11.2860   24.3230   12.1270 H     147  INH147      0.1660
      4  C4        13.8180   26.2460   11.7720 C.2   147  INH147      0.1140
      5  C5        11.7760   26.3330   12.5650 C.3   147  INH147      0.1800
      6  N3        12.9050   27.0470   12.3650 N.pl3 147  INH147     -0.3600
      7  H10       13.0470   28.0350   12.6190 H     147  INH147      0.1660
      8  C2        13.8770   23.7810   10.9930 C.3   147  INH147      0.0850
      9  C1        14.6540   24.1350    9.7320 C.3   147  INH147      0.2350
     10  N1        14.9240   22.9240    8.9640 N.4   147  INH147     -0.0790
     11  H3        15.8870   22.6510    9.0930 H     147  INH147      0.2740
     12  H2        14.3190   22.1830    9.2810 H     147  INH147      0.2740
     13  H1        14.7540   23.1010    7.9860 H     147  INH147      0.2740
@<TRIPOS>BOND
     1    13    10    1
     2    10    11    1
     3    10    12    1
     4    10     9    1
     5     9     8    1
     6     8     1    1
     7     1     4    2
     8     1     2    1
     9     4     6    1
    10     2     3    1
    11     2     5    1
    12     6     5    1
    13     6     7    1
