@<TRIPOS>MOLECULE
./ligand/1iup_lig.pdb
 13 12 0 0 0
SMALL
GASTEIGER

@<TRIPOS>ATOM
      1  C1         3.5750   29.6540   -1.7730 C.3   547  INH547      0.0551
      2  C2         2.9390   28.7700   -0.6640 C.2   547  INH547      0.3585
      3  O1         2.9140   29.1620    0.5680 O.co2 547  INH547     -0.2461
      4  O2         2.4220   27.6280   -0.9760 O.co2 547  INH547     -0.2461
      5  C3         4.8610   28.9920   -2.2980 C.3   547  INH547     -0.0524
      6  C4         3.9050   31.0670   -1.2350 C.3   547  INH547     -0.0524
      7  H1         2.8580   29.7500   -2.6020 H     547  INH547      0.0409
      8  H2         5.3050   29.6230   -3.0820 H     547  INH547      0.0237
      9  H3         4.6200   28.0030   -2.7160 H     547  INH547      0.0237
     10  H4         5.5770   28.8760   -1.4720 H     547  INH547      0.0237
     11  H5         2.9860   31.5400   -0.8600 H     547  INH547      0.0237
     12  H6         4.3280   31.6790   -2.0460 H     547  INH547      0.0237
     13  H7         4.6360   30.9860   -0.4170 H     547  INH547      0.0237
@<TRIPOS>BOND
     1     1     7    1
     2     1     6    1
     3     1     5    1
     4     1     2    1
     5     2     4   ar
     6     2     3   ar
     7     5    10    1
     8     5     9    1
     9     5     8    1
    10     6    13    1
    11     6    12    1
    12     6    11    1
