@<TRIPOS>MOLECULE
/tmp/ewbell/vina_1iup_1iup_lig/vina/vina5.pdbqt
 7 6 0 0 0
SMALL
GASTEIGER

@<TRIPOS>ATOM
      1  C2        13.4530   39.1160  -10.2240 C.2   547  INH547      0.1430
      2  O2        12.3990   38.5220   -9.7710 O.2   547  INH547     -0.6500
      3  C1        13.9580   38.7970  -11.6590 C.3   547  INH547      0.0750
      4  C4        12.7900   38.3580  -12.5740 C.3   547  INH547      0.0200
      5  C3        14.6440   40.0360  -12.2610 C.3   547  INH547      0.0200
      6  O1        14.0680   39.9720   -9.4760 O.3   547  INH547     -0.7760
      7  H         14.7460   39.6860   -8.8950 H     547  INH547      0.1670
@<TRIPOS>BOND
     1     4     3    1
     2     5     3    1
     3     3     1    1
     4     1     2    2
     5     1     6    1
     6     6     7    1
