@<TRIPOS>MOLECULE
/tmp/ewbell/vina_1iup_1iup_lig/vina/vina3.pdbqt
 7 6 0 0 0
SMALL
GASTEIGER

@<TRIPOS>ATOM
      1  C2        13.8040   30.0950  -11.1840 C.2   547  INH547      0.1430
      2  O2        15.0550   29.7980  -11.0660 O.2   547  INH547     -0.6500
      3  C1        12.7740   28.9740  -11.4990 C.3   547  INH547      0.0750
      4  C4        11.7080   28.8710  -10.3820 C.3   547  INH547      0.0200
      5  C3        12.0820   29.2600  -12.8430 C.3   547  INH547      0.0200
      6  O1        13.4270   31.3230  -11.0340 O.3   547  INH547     -0.7760
      7  H         13.6740   31.7990  -10.2660 H     547  INH547      0.1670
@<TRIPOS>BOND
     1     5     3    1
     2     3     1    1
     3     3     4    1
     4     1     2    2
     5     1     6    1
     6     6     7    1
