@<TRIPOS>MOLECULE
/tmp/ewbell/vina_1iup_1iup_lig/vina/vina1.pdbqt
 7 6 0 0 0
SMALL
GASTEIGER

@<TRIPOS>ATOM
      1  C2        12.0340   28.5090  -10.5280 C.2   547  INH547      0.1430
      2  O2        11.0840   28.6260   -9.6600 O.2   547  INH547     -0.6500
      3  C1        12.4590   29.7420  -11.3730 C.3   547  INH547      0.0750
      4  C4        13.9270   30.1350  -11.0820 C.3   547  INH547      0.0200
      5  C3        12.2980   29.4310  -12.8710 C.3   547  INH547      0.0200
      6  O1        12.6200   27.3660  -10.6740 O.3   547  INH547     -0.7760
      7  H         12.6160   26.7430   -9.9740 H     547  INH547      0.1670
@<TRIPOS>BOND
     1     5     3    1
     2     3     4    1
     3     3     1    1
     4     6     1    1
     5     6     7    1
     6     1     2    2
