@<TRIPOS>MOLECULE
/tmp/ewbell/vina_1iup_1iup_lig/vina/vina2.pdbqt
 7 6 0 0 0
SMALL
GASTEIGER

@<TRIPOS>ATOM
      1  C2         7.5430   39.1030   -6.3230 C.2   547  INH547      0.1430
      2  O2         8.8340   39.0630   -6.3670 O.2   547  INH547     -0.6500
      3  C1         6.8360   39.7500   -5.1000 C.3   547  INH547      0.0750
      4  C4         5.5280   40.4600   -5.5260 C.3   547  INH547      0.0200
      5  C3         6.5140   38.6720   -4.0500 C.3   547  INH547      0.0200
      6  O1         6.8600   38.6090   -7.3030 O.3   547  INH547     -0.7760
      7  H          6.9390   37.7000   -7.5180 H     547  INH547      0.1670
@<TRIPOS>BOND
     1     7     6    1
     2     6     1    1
     3     2     1    2
     4     1     3    1
     5     4     3    1
     6     3     5    1
