@<TRIPOS>MOLECULE
/tmp/ewbell/vina_1iup_1iup_lig/vina/vina4.pdbqt
 7 6 0 0 0
SMALL
GASTEIGER

@<TRIPOS>ATOM
      1  C2         6.6390   38.9190   -4.4590 C.2   547  INH547      0.1430
      2  O2         7.4880   38.7700   -5.4220 O.2   547  INH547     -0.6500
      3  C1         5.6680   40.1330   -4.4720 C.3   547  INH547      0.0750
      4  C4         5.5370   40.7230   -5.8970 C.3   547  INH547      0.0200
      5  C3         4.2810   39.6990   -3.9670 C.3   547  INH547      0.0200
      6  O1         6.6080   38.0510   -3.5020 O.3   547  INH547     -0.7760
      7  H          6.1310   37.2520   -3.6090 H     547  INH547      0.1670
@<TRIPOS>BOND
     1     4     3    1
     2     2     1    2
     3     3     1    1
     4     3     5    1
     5     1     6    1
     6     7     6    1
