@<TRIPOS>MOLECULE
./ligand/1i7z_lig.pdb
 44 46 0 0 0
SMALL
GASTEIGER

@<TRIPOS>ATOM
      1  C1        40.3620    4.8820   50.1180 C.3   444  INH444      0.0817
      2  O1        39.6820    4.2280   49.0120 O.3   444  INH444     -0.4675
      3  C2        40.1310    4.4390   47.7590 C.2   444  INH444      0.3190
      4  O2        41.2660    4.7520   47.4970 O.2   444  INH444     -0.2502
      5  C3        38.9430    4.2070   46.8010 C.3   444  INH444      0.1357
      6  C4        39.4460    3.4330   45.5100 C.3   444  INH444     -0.0040
      7  N1        40.5100    4.2460   44.8810 N.4   444  INH444      0.2382
      8  C5        41.3640    3.4710   43.9470 C.3   444  INH444     -0.0426
      9  C6        38.3560    3.2370   44.4180 C.3   444  INH444     -0.0037
     10  C7        38.5320    4.4870   43.5100 C.3   444  INH444     -0.0044
     11  C8        39.6850    5.2640   44.1930 C.3   444  INH444     -0.0172
     12  C9        39.1480    6.2560   45.2890 C.3   444  INH444      0.0285
     13  C10       38.2790    5.5110   46.3060 C.3   444  INH444      0.1266
     14  O3        37.9450    6.3730   47.4520 O.3   444  INH444     -0.4566
     15  C11       36.9150    6.0730   48.2820 C.2   444  INH444      0.3395
     16  O4        36.0530    5.2800   48.0160 O.2   444  INH444     -0.2450
     17  C12       36.9850    6.8630   49.5910 C.ar  444  INH444      0.0590
     18  C13       36.0250    6.5910   50.6020 C.ar  444  INH444     -0.0478
     19  C14       36.0760    7.3130   51.8230 C.ar  444  INH444     -0.0610
     20  C15       37.0400    8.2650   52.0360 C.ar  444  INH444     -0.0617
     21  C16       37.9830    8.5380   51.0520 C.ar  444  INH444     -0.0610
     22  C17       37.9560    7.8350   49.8230 C.ar  444  INH444     -0.0478
     23  H1        39.8730    4.6060   51.0640 H     444  INH444      0.0661
     24  H2        40.3130    5.9730   49.9850 H     444  INH444      0.0661
     25  H3        41.4140    4.5620   50.1420 H     444  INH444      0.0661
     26  H4        38.1890    3.6020   47.3260 H     444  INH444      0.0507
     27  H5        39.8380    2.4510   45.8130 H     444  INH444      0.0860
     28  H6        41.1010    4.6690   45.5790 H     444  INH444      0.2036
     29  H7        42.1310    4.1320   43.5170 H     444  INH444      0.0778
     30  H8        40.7420    3.0560   43.1400 H     444  INH444      0.0778
     31  H9        41.8520    2.6500   44.4920 H     444  INH444      0.0778
     32  H10       37.3510    3.2120   44.8640 H     444  INH444      0.0322
     33  H11       38.5280    2.3100   43.8510 H     444  INH444      0.0322
     34  H12       38.8060    4.1940   42.4860 H     444  INH444      0.0322
     35  H13       37.6120    5.0890   43.4850 H     444  INH444      0.0322
     36  H14       40.2730    5.8130   43.4430 H     444  INH444      0.0852
     37  H15       38.5470    7.0400   44.8050 H     444  INH444      0.0356
     38  H16       40.0010    6.7160   45.8100 H     444  INH444      0.0356
     39  H17       37.3400    5.2380   45.8020 H     444  INH444      0.0746
     40  H18       35.2610    5.8390   50.4430 H     444  INH444      0.0626
     41  H19       35.3440    7.1090   52.5960 H     444  INH444      0.0618
     42  H20       37.0670    8.8060   52.9750 H     444  INH444      0.0618
     43  H21       38.7420    9.2920   51.2260 H     444  INH444      0.0618
     44  H22       38.6940    8.0540   49.0600 H     444  INH444      0.0626
@<TRIPOS>BOND
     1     1    25    1
     2     1    24    1
     3     1    23    1
     4     1     2    1
     5     2     3    1
     6     3     5    1
     7     3     4    2
     8     5    26    1
     9     5    13    1
    10     5     6    1
    11     6    27    1
    12     6     9    1
    13     6     7    1
    14     7    28    1
    15     7    11    1
    16     7     8    1
    17     8    31    1
    18     8    30    1
    19     8    29    1
    20     9    10    1
    21     9    33    1
    22     9    32    1
    23    10    11    1
    24    10    35    1
    25    10    34    1
    26    11    36    1
    27    11    12    1
    28    12    38    1
    29    12    37    1
    30    12    13    1
    31    13    39    1
    32    13    14    1
    33    14    15    1
    34    15    17    1
    35    15    16    2
    36    17    22   ar
    37    17    18   ar
    38    18    40    1
    39    18    19   ar
    40    19    41    1
    41    19    20   ar
    42    20    42    1
    43    20    21   ar
    44    21    43    1
    45    21    22   ar
    46    22    44    1
