@<TRIPOS>MOLECULE
/tmp/ewbell/vina_1i7z_1i7z_lig/vina/vina1.pdbqt
 23 25 0 0 0
SMALL
GASTEIGER

@<TRIPOS>ATOM
      1  C3        38.8220    4.3710   46.8140 C.3   444  INH444      0.1460
      2  C4        39.3800    3.5830   45.5540 C.3   444  INH444      0.2040
      3  N1        40.5180    4.3530   45.0070 N.4   444  INH444     -0.0650
      4  C5        41.4010    3.5470   44.1280 C.3   444  INH444      0.2700
      5  C6        38.3610    3.4400   44.3880 C.3   444  INH444      0.0360
      6  C7        38.6520    4.6860   43.5050 C.3   444  INH444      0.0350
      7  C8        39.7870    5.4090   44.2720 C.3   444  INH444      0.1910
      8  C9        39.2180    6.4170   45.3370 C.3   444  INH444      0.0660
      9  C10       38.2500    5.7050   46.2850 C.3   444  INH444      0.1490
     10  H6        41.0770    4.7460   45.7480 H     444  INH444      0.2800
     11  O3        37.8740    6.5740   47.4130 O.3   444  INH444     -0.3110
     12  C11       36.8350    6.2610   48.2270 C.2   444  INH444      0.2930
     13  O4        35.9470    5.5150   47.9190 O.2   444  INH444     -0.2590
     14  C12       36.9340    6.9720   49.5800 C.ar  444  INH444      0.0390
     15  C17       36.0460    6.7140   50.6220 C.ar  444  INH444      0.0170
     16  C16       36.1740    7.3990   51.8540 C.ar  444  INH444      0.0010
     17  C15       37.1880    8.3330   52.0350 C.ar  444  INH444      0.0000
     18  C14       38.0720    8.5960   51.0200 C.ar  444  INH444      0.0010
     19  C13       37.9670    7.9270   49.7730 C.ar  444  INH444      0.0170
     20  C2        39.9490    4.5460   47.8540 C.2   444  INH444      0.2670
     21  O2        41.0730    4.9520   47.6910 O.2   444  INH444     -0.2650
     22  O1        39.4590    4.1540   49.0460 O.3   444  INH444     -0.3260
     23  C1        40.0450    4.7010   50.2580 C.3   444  INH444      0.2130
@<TRIPOS>BOND
     1     6     7    1
     2     6     5    1
     3     4     3    1
     4     7     3    1
     5     7     8    1
     6     5     2    1
     7     3     2    1
     8     3    10    1
     9     8     9    1
    10     2     1    1
    11     9     1    1
    12     9    11    1
    13     1    20    1
    14    11    12    1
    15    21    20    2
    16    20    22    1
    17    13    12    2
    18    12    14    1
    19    22    23    1
    20    14    19   ar
    21    14    15   ar
    22    19    18   ar
    23    15    16   ar
    24    18    17   ar
    25    16    17   ar
