@<TRIPOS>MOLECULE
/tmp/ewbell/vina_1i7z_1i7z_lig/vina/vina2.pdbqt
 23 25 0 0 0
SMALL
GASTEIGER

@<TRIPOS>ATOM
      1  C3        38.7410    6.0880   46.9720 C.3   444  INH444      0.1460
      2  C4        39.0340    6.2910   45.4260 C.3   444  INH444      0.2040
      3  N1        38.7780    5.0030   44.7440 N.4   444  INH444     -0.0650
      4  C5        38.5810    5.1450   43.2800 C.3   444  INH444      0.2700
      5  C6        40.5090    6.6610   45.0990 C.3   444  INH444      0.0360
      6  C7        41.1780    5.2790   44.8550 C.3   444  INH444      0.0350
      7  C8        40.0200    4.2770   45.0880 C.3   444  INH444      0.1910
      8  C9        39.9150    3.8500   46.5980 C.3   444  INH444      0.0660
      9  C10       39.7920    5.0850   47.4950 C.3   444  INH444      0.1490
     10  H6        37.9690    4.5440   45.1320 H     444  INH444      0.2800
     11  O3        39.4790    4.7040   48.8830 O.3   444  INH444     -0.3110
     12  C11       40.3430    4.9620   49.8960 C.2   444  INH444      0.2930
     13  O4        41.4550    4.5120   49.9560 O.2   444  INH444     -0.2590
     14  C12       39.7330    5.8920   50.9480 C.ar  444  INH444      0.0390
     15  C17       38.5630    6.6120   50.7150 C.ar  444  INH444      0.0170
     16  C16       38.0380    7.4630   51.7180 C.ar  444  INH444      0.0010
     17  C15       38.6850    7.5860   52.9420 C.ar  444  INH444      0.0000
     18  C14       39.8360    6.8820   53.1880 C.ar  444  INH444      0.0010
     19  C13       40.3860    6.0230   52.2020 C.ar  444  INH444      0.0170
     20  C2        37.2830    5.6170   47.1630 C.2   444  INH444      0.2670
     21  O2        36.7480    4.6210   46.7440 O.2   444  INH444     -0.2650
     22  O1        36.6590    6.5430   47.9170 O.3   444  INH444     -0.3260
     23  C1        35.6590    6.1050   48.8770 C.3   444  INH444      0.2130
@<TRIPOS>BOND
     1     4     3    1
     2     3     7    1
     3     3    10    1
     4     3     2    1
     5     6     7    1
     6     6     5    1
     7     7     8    1
     8     5     2    1
     9     2     1    1
    10     8     9    1
    11    21    20    2
    12     1    20    1
    13     1     9    1
    14    20    22    1
    15     9    11    1
    16    22    23    1
    17    11    12    1
    18    12    13    2
    19    12    14    1
    20    15    14   ar
    21    15    16   ar
    22    14    19   ar
    23    16    17   ar
    24    19    18   ar
    25    17    18   ar
