@<TRIPOS>MOLECULE
/tmp/ewbell/vina_1i7z_1i7z_lig/vina/vina3.pdbqt
 23 25 0 0 0
SMALL
GASTEIGER

@<TRIPOS>ATOM
      1  C3        39.6780    5.4750   46.6390 C.3   444  INH444      0.1460
      2  C4        39.9530    5.3000   45.0860 C.3   444  INH444      0.2040
      3  N1        38.7530    4.6820   44.4810 N.4   444  INH444     -0.0650
      4  C5        38.6830    4.8590   43.0090 C.3   444  INH444      0.2700
      5  C6        41.1380    4.3490   44.7520 C.3   444  INH444      0.0360
      6  C7        40.4500    2.9630   44.5970 C.3   444  INH444      0.0350
      7  C8        38.9580    3.2720   44.8790 C.3   444  INH444      0.1910
      8  C9        38.6210    3.1600   46.4110 C.3   444  INH444      0.0660
      9  C10       39.5550    4.0540   47.2320 C.3   444  INH444      0.1490
     10  H6        37.9100    5.0560   44.8880 H     444  INH444      0.2800
     11  O3        39.1210    4.1290   48.6360 O.3   444  INH444     -0.3110
     12  C11       39.8780    4.7500   49.5750 C.2   444  INH444      0.2930
     13  O4        41.0550    4.5590   49.7170 O.2   444  INH444     -0.2590
     14  C12       39.0540    5.7200   50.4270 C.ar  444  INH444      0.0390
     15  C17       39.6160    6.4650   51.4610 C.ar  444  INH444      0.0170
     16  C16       38.8120    7.3470   52.2230 C.ar  444  INH444      0.0010
     17  C15       37.4560    7.4770   51.9460 C.ar  444  INH444      0.0000
     18  C14       36.8880    6.7520   50.9300 C.ar  444  INH444      0.0010
     19  C13       37.6670    5.8590   50.1500 C.ar  444  INH444      0.0170
     20  C2        38.4190    6.3450   46.8440 C.2   444  INH444      0.2670
     21  O2        37.2600    6.0100   46.8550 O.2   444  INH444     -0.2650
     22  O1        38.8340    7.6140   47.0220 O.3   444  INH444     -0.3260
     23  C1        38.1530    8.4420   48.0040 C.3   444  INH444      0.2130
@<TRIPOS>BOND
     1     4     3    1
     2     3     7    1
     3     3    10    1
     4     3     2    1
     5     6     5    1
     6     6     7    1
     7     5     2    1
     8     7     8    1
     9     2     1    1
    10     8     9    1
    11     1    20    1
    12     1     9    1
    13    20    21    2
    14    20    22    1
    15    22    23    1
    16     9    11    1
    17    11    12    1
    18    12    13    2
    19    12    14    1
    20    19    14   ar
    21    19    18   ar
    22    14    15   ar
    23    18    17   ar
    24    15    16   ar
    25    17    16   ar
