@<TRIPOS>MOLECULE
/tmp/ewbell/vina_1i7z_1i7z_lig/vina/vina4.pdbqt
 23 25 0 0 0
SMALL
GASTEIGER

@<TRIPOS>ATOM
      1  C3        38.1920    4.5360   45.8210 C.3   444  INH444      0.1460
      2  C4        39.2090    4.9260   44.6660 C.3   444  INH444      0.2040
      3  N1        40.5690    4.5610   45.1180 N.4   444  INH444     -0.0650
      4  C5        41.5470    4.4540   44.0070 C.3   444  INH444      0.2700
      5  C6        39.2580    6.4470   44.3460 C.3   444  INH444      0.0360
      6  C7        40.3950    6.9690   45.2690 C.3   444  INH444      0.0350
      7  C8        40.8540    5.6960   46.0240 C.3   444  INH444      0.1910
      8  C9        40.0220    5.4710   47.3400 C.3   444  INH444      0.0660
      9  C10       38.5230    5.4420   47.0270 C.3   444  INH444      0.1490
     10  H6        40.5600    3.6880   45.6220 H     444  INH444      0.2800
     11  O3        37.7430    5.0200   48.2030 O.3   444  INH444     -0.3110
     12  C11       36.7790    5.8150   48.7300 C.2   444  INH444      0.2930
     13  O4        35.6660    5.8990   48.2860 O.2   444  INH444     -0.2590
     14  C12       37.2790    6.5880   49.9540 C.ar  444  INH444      0.0390
     15  C17       38.4990    6.3060   50.5650 C.ar  444  INH444      0.0170
     16  C16       38.9170    7.0450   51.6980 C.ar  444  INH444      0.0010
     17  C15       38.1140    8.0590   52.2090 C.ar  444  INH444      0.0000
     18  C14       36.9110    8.3510   51.6180 C.ar  444  INH444      0.0010
     19  C13       36.4650    7.6250   50.4830 C.ar  444  INH444      0.0170
     20  C2        38.3120    3.0270   46.1250 C.2   444  INH444      0.2670
     21  O2        38.2960    2.4660   47.1930 O.2   444  INH444     -0.2650
     22  O1        38.4430    2.3900   44.9460 O.3   444  INH444     -0.3260
     23  C1        37.6440    2.8360   43.8170 C.3   444  INH444      0.2130
@<TRIPOS>BOND
     1    23    22    1
     2     4     3    1
     3     5     2    1
     4     5     6    1
     5     2     3    1
     6     2     1    1
     7    22    20    1
     8     3    10    1
     9     3     7    1
    10     6     7    1
    11     1    20    1
    12     1     9    1
    13     7     8    1
    14    20    21    2
    15     9     8    1
    16     9    11    1
    17    11    12    1
    18    13    12    2
    19    12    14    1
    20    14    19   ar
    21    14    15   ar
    22    19    18   ar
    23    15    16   ar
    24    18    17   ar
    25    16    17   ar
