@<TRIPOS>MOLECULE
/tmp/ewbell/vina_1i7z_1i7z_lig/vina/vina5.pdbqt
 23 25 0 0 0
SMALL
GASTEIGER

@<TRIPOS>ATOM
      1  C3        38.4720    7.9190   51.4630 C.3   444  INH444      0.1460
      2  C4        37.6320    8.5120   52.6730 C.3   444  INH444      0.2040
      3  N1        36.8420    7.4080   53.2600 N.4   444  INH444     -0.0650
      4  C5        36.3650    7.6970   54.6350 C.3   444  INH444      0.2700
      5  C6        36.6030    9.6030   52.2610 C.3   444  INH444      0.0360
      6  C7        35.3040    8.7870   52.0030 C.3   444  INH444      0.0350
      7  C8        35.7410    7.3260   52.2750 C.3   444  INH444      0.1910
      8  C9        36.3140    6.6400   50.9810 C.3   444  INH444      0.0660
      9  C10       37.4520    7.4760   50.3910 C.3   444  INH444      0.1490
     10  H6        37.3760    6.5530   53.2790 H     444  INH444      0.2800
     11  O3        38.1400    6.7500   49.3110 O.3   444  INH444     -0.3110
     12  C11       38.3050    7.3030   48.0840 C.2   444  INH444      0.2930
     13  O4        37.7150    8.2790   47.7070 O.2   444  INH444     -0.2590
     14  C12       39.3300    6.5380   47.2430 C.ar  444  INH444      0.0390
     15  C17       40.0830    5.4870   47.7620 C.ar  444  INH444      0.0170
     16  C16       41.0220    4.8110   46.9460 C.ar  444  INH444      0.0010
     17  C15       41.2000    5.1900   45.6200 C.ar  444  INH444      0.0000
     18  C14       40.4650    6.2210   45.0930 C.ar  444  INH444      0.0010
     19  C13       39.5180    6.9180   45.8870 C.ar  444  INH444      0.0170
     20  C2        39.3740    6.7750   51.9740 C.2   444  INH444      0.2670
     21  O2        39.7520    5.7910   51.3890 O.2   444  INH444     -0.2650
     22  O1        39.6970    7.0590   53.2500 O.3   444  INH444     -0.3260
     23  C1        41.0740    6.8810   53.6800 C.3   444  INH444      0.2130
@<TRIPOS>BOND
     1    18    17   ar
     2    18    19   ar
     3    17    16   ar
     4    19    14   ar
     5    16    15   ar
     6    14    15   ar
     7    14    12    1
     8    13    12    2
     9    12    11    1
    10    11     9    1
    11     9     8    1
    12     9     1    1
    13     8     7    1
    14    21    20    2
    15     1    20    1
    16     1     2    1
    17    20    22    1
    18     6     5    1
    19     6     7    1
    20     5     2    1
    21     7     3    1
    22     2     3    1
    23    22    23    1
    24     3    10    1
    25     3     4    1
