@<TRIPOS>MOLECULE
./ligand/2hd6_lig.pdb
 30 31 0 0 0
SMALL
GASTEIGER

@<TRIPOS>ATOM
      1  N1        -5.3400   -0.5360   15.9860 N.3   261  INH261     -0.1053
      2  S1        -5.9140    0.8420   16.6720 S.O2  261  INH261      0.0723
      3  O1        -5.3600    0.8590   17.9970 O.2   261  INH261     -0.1519
      4  O2        -7.3280    0.8260   16.5340 O.2   261  INH261     -0.1519
      5  C1        -5.2400    2.1820   15.7720 C.ar  261  INH261      0.1067
      6  C2        -3.8790    2.1650   15.4100 C.ar  261  INH261     -0.0336
      7  C3        -3.3290    3.2450   14.6960 C.ar  261  INH261     -0.0386
      8  C4        -4.1410    4.3630   14.3340 C.ar  261  INH261      0.0338
      9  C5        -5.5120    4.3620   14.7060 C.ar  261  INH261     -0.0386
     10  C6        -6.0560    3.2780   15.4200 C.ar  261  INH261     -0.0336
     11  N2        -3.6230    5.4800   13.6190 N.am  261  INH261     -0.2815
     12  C7        -2.3490    5.7700   13.1940 C.2   261  INH261      0.2493
     13  O3        -1.3650    5.0690   13.3650 O.2   261  INH261     -0.2698
     14  C8        -2.2570    7.0880   12.4680 C.ar  261  INH261      0.0512
     15  C9        -1.5670    8.1470   13.1110 C.ar  261  INH261     -0.0485
     16  C10       -1.4390    9.4050   12.5000 C.ar  261  INH261     -0.0610
     17  C11       -1.9990    9.6430   11.2200 C.ar  261  INH261     -0.0607
     18  C12       -2.6890    8.6060   10.5610 C.ar  261  INH261     -0.0468
     19  C13       -2.8330    7.3230   11.1610 C.ar  261  INH261      0.0311
     20  S2        -3.7220    6.0140   10.2970 S.3   261  INH261     -0.0512
     21  H1        -5.6290   -1.4270   16.3360 H     261  INH261      0.1694
     22  H2        -3.2560    1.3210   15.6810 H     261  INH261      0.0638
     23  H3        -2.2810    3.2290   14.4180 H     261  INH261      0.0637
     24  H4        -6.1430    5.2020   14.4380 H     261  INH261      0.0637
     25  H5        -7.1030    3.2850   15.7000 H     261  INH261      0.0638
     26  H6        -4.3050    6.1740   13.3860 H     261  INH261      0.1551
     27  H7        -1.1310    7.9830   14.0900 H     261  INH261      0.0625
     28  H8        -0.9080   10.2000   13.0110 H     261  INH261      0.0618
     29  H9        -1.8970   10.6150   10.7520 H     261  INH261      0.0618
     30  H10       -3.1170    8.7880    9.5820 H     261  INH261      0.0629
@<TRIPOS>BOND
     1     1    21    1
     2     1     2    1
     3     2     5    1
     4     2     4    2
     5     2     3    2
     6     5    10   ar
     7     5     6   ar
     8     6    22    1
     9     6     7   ar
    10     7    23    1
    11     7     8   ar
    12     8    11    1
    13     8     9   ar
    14     9    24    1
    15     9    10   ar
    16    10    25    1
    17    11    26    1
    18    11    12   am
    19    12    14    1
    20    12    13    2
    21    14    19   ar
    22    14    15   ar
    23    15    27    1
    24    15    16   ar
    25    16    28    1
    26    16    17   ar
    27    17    29    1
    28    17    18   ar
    29    18    30    1
    30    18    19   ar
    31    19    20    1
