@<TRIPOS>MOLECULE
/tmp/ewbell/vina_2hd6_2hd6_lig/vina/vina2.pdbqt
 24 25 0 0 0
SMALL
GASTEIGER

@<TRIPOS>ATOM
      1  C1        -4.3210    1.8740   13.9980 C.ar  261  INH261      0.0740
      2  C2        -4.3430    3.2790   13.9220 C.ar  261  INH261      0.0270
      3  C3        -4.3770    3.9150   12.6680 C.ar  261  INH261      0.0310
      4  C4        -4.3920    3.1440   11.4660 C.ar  261  INH261      0.0350
      5  C5        -4.3690    1.7270   11.5610 C.ar  261  INH261      0.0310
      6  C6        -4.3340    1.0980   12.8190 C.ar  261  INH261      0.0270
      7  N2        -4.4360    3.7460   10.1760 N.am  261  INH261     -0.3230
      8  H6        -5.3540    3.8200    9.7850 H     261  INH261      0.1690
      9  C7        -3.4360    4.2430    9.3760 C.2   261  INH261      0.2570
     10  O3        -3.5910    4.7550    8.2790 O.2   261  INH261     -0.2670
     11  C8        -2.0660    4.0970    9.9870 C.ar  261  INH261      0.0480
     12  C13       -1.4310    5.1250   10.7830 C.ar  261  INH261      0.0130
     13  C12       -0.1320    4.8870   11.3160 C.ar  261  INH261      0.0190
     14  C11        0.5370    3.6700   11.0800 C.ar  261  INH261      0.0010
     15  C10       -0.0920    2.6670   10.3000 C.ar  261  INH261      0.0010
     16  C9        -1.3720    2.8800    9.7630 C.ar  261  INH261      0.0180
     17  S2        -2.2660    6.6910   11.1010 S.3   261  INH261     -0.1420
     18  H         -1.5450    7.7080   10.5580 H     261  INH261      0.1070
     19  S1        -4.2920    1.0900   15.5610 S.O2  261  INH261      0.2390
     20  O2        -3.0520    1.3400   16.2070 O.2   261  INH261     -0.2060
     21  O1        -4.7090   -0.2750   15.3950 O.2   261  INH261     -0.2060
     22  N1        -5.4680    1.7880   16.4730 N.3   261  INH261     -0.2250
     23  H1        -5.4530    2.7730   16.6380 H     261  INH261      0.1360
     24  H         -6.3560    1.5790   16.0160 H     261  INH261      0.1360
@<TRIPOS>BOND
     1    10     9    2
     2     9    11    1
     3     9     7   am
     4    16    11   ar
     5    16    15   ar
     6     8     7    1
     7    11    12   ar
     8     7     4    1
     9    15    14   ar
    10    18    17    1
    11    12    17    1
    12    12    13   ar
    13    14    13   ar
    14     4     5   ar
    15     4     3   ar
    16     5     6   ar
    17     3     2   ar
    18     6     1   ar
    19     2     1   ar
    20     1    19    1
    21    21    19    2
    22    19    20    2
    23    19    22    1
    24    24    22    1
    25    22    23    1
