@<TRIPOS>MOLECULE
/tmp/ewbell/vina_2hd6_2hd6_lig/vina/vina4.pdbqt
 24 25 0 0 0
SMALL
GASTEIGER

@<TRIPOS>ATOM
      1  C1        -3.0250    1.7160   11.1360 C.ar  261  INH261      0.0740
      2  C2        -1.8280    1.1560   10.6520 C.ar  261  INH261      0.0270
      3  C3        -0.6260    1.8810   10.7470 C.ar  261  INH261      0.0310
      4  C4        -0.6090    3.1820   11.3330 C.ar  261  INH261      0.0350
      5  C5        -1.8260    3.7320   11.8150 C.ar  261  INH261      0.0310
      6  C6        -3.0260    3.0020   11.7160 C.ar  261  INH261      0.0270
      7  N2         0.5870    3.9460   11.4570 N.am  261  INH261     -0.3230
      8  H6         1.0300    3.8770   12.3510 H     261  INH261      0.1690
      9  C7         1.2370    4.7600   10.5610 C.2   261  INH261      0.2570
     10  O3         2.2760    5.3640   10.7730 O.2   261  INH261     -0.2670
     11  C8         0.5300    4.8560    9.2330 C.ar  261  INH261      0.0480
     12  C13       -0.4740    5.8530    8.9310 C.ar  261  INH261      0.0130
     13  C12       -1.0830    5.8580    7.6450 C.ar  261  INH261      0.0190
     14  C11       -0.7210    4.9100    6.6670 C.ar  261  INH261      0.0010
     15  C10        0.2640    3.9360    6.9700 C.ar  261  INH261      0.0010
     16  C9         0.8770    3.9110    8.2330 C.ar  261  INH261      0.0180
     17  S2        -0.9540    7.0790   10.1640 S.3   261  INH261     -0.1420
     18  H         -2.0160    6.6160   10.8750 H     261  INH261      0.1070
     19  S1        -4.5140    0.8050   11.0260 S.O2  261  INH261      0.2390
     20  O2        -4.6390   -0.0600   12.1460 O.2   261  INH261     -0.2060
     21  O1        -4.6020    0.2310    9.7110 O.2   261  INH261     -0.2060
     22  N1        -5.7490    1.8870   11.1030 N.3   261  INH261     -0.2250
     23  H1        -6.6950    1.5700   11.0530 H     261  INH261      0.1360
     24  H         -5.6500    2.3820   11.9900 H     261  INH261      0.1360
@<TRIPOS>BOND
     1    14    15   ar
     2    14    13   ar
     3    15    16   ar
     4    13    12   ar
     5    16    11   ar
     6    12    11   ar
     7    12    17    1
     8    11     9    1
     9    21    19    2
    10    17    18    1
    11     9    10    2
    12     9     7   am
    13     2     3   ar
    14     2     1   ar
    15     3     4   ar
    16    19    22    1
    17    19     1    1
    18    19    20    2
    19    23    22    1
    20    22    24    1
    21     1     6   ar
    22     4     7    1
    23     4     5   ar
    24     7     8    1
    25     6     5   ar
