@<TRIPOS>MOLECULE
/tmp/ewbell/vina_2hd6_2hd6_lig/vina/vina5.pdbqt
 24 25 0 0 0
SMALL
GASTEIGER

@<TRIPOS>ATOM
      1  C1        -5.4790    1.7130   15.4870 C.ar  261  INH261      0.0740
      2  C2        -5.8860    2.8890   14.8290 C.ar  261  INH261      0.0270
      3  C3        -5.4370    3.1520   13.5220 C.ar  261  INH261      0.0310
      4  C4        -4.5720    2.2330   12.8540 C.ar  261  INH261      0.0350
      5  C5        -4.1710    1.0520   13.5340 C.ar  261  INH261      0.0310
      6  C6        -4.6230    0.7960   14.8430 C.ar  261  INH261      0.0270
      7  N2        -4.1020    2.4560   11.5280 N.am  261  INH261     -0.3230
      8  H6        -4.3490    1.7390   10.8760 H     261  INH261      0.1690
      9  C7        -3.3690    3.4860   10.9900 C.2   261  INH261      0.2570
     10  O3        -3.0270    3.5810    9.8220 O.2   261  INH261     -0.2670
     11  C8        -2.9980    4.5370   12.0050 C.ar  261  INH261      0.0480
     12  C13       -3.6210    5.8410   12.0700 C.ar  261  INH261      0.0130
     13  C12       -3.1970    6.7640   13.0680 C.ar  261  INH261      0.0190
     14  C11       -2.1860    6.4240   13.9880 C.ar  261  INH261      0.0010
     15  C10       -1.5810    5.1440   13.9190 C.ar  261  INH261      0.0010
     16  C9        -1.9820    4.2180   12.9420 C.ar  261  INH261      0.0180
     17  S2        -4.9180    6.3010   10.9050 S.3   261  INH261     -0.1420
     18  H         -5.2730    7.5980   11.1100 H     261  INH261      0.1070
     19  S1        -6.0510    1.3860   17.1080 S.O2  261  INH261      0.2390
     20  O2        -6.0760    2.5870   17.8670 O.2   261  INH261     -0.2060
     21  O1        -5.3200    0.2650   17.6310 O.2   261  INH261     -0.2060
     22  N1        -7.6020    0.8600   16.9750 N.3   261  INH261     -0.2250
     23  H1        -7.8000    0.0010   16.5030 H     261  INH261      0.1360
     24  H         -7.9620    0.7640   17.9250 H     261  INH261      0.1360
@<TRIPOS>BOND
     1    10     9    2
     2     8     7    1
     3    17    18    1
     4    17    12    1
     5     9     7   am
     6     9    11    1
     7     7     4    1
     8    11    12   ar
     9    11    16   ar
    10    12    13   ar
    11     4     3   ar
    12     4     5   ar
    13    16    15   ar
    14    13    14   ar
    15     3     2   ar
    16     5     6   ar
    17    15    14   ar
    18     2     1   ar
    19     6     1   ar
    20     1    19    1
    21    23    22    1
    22    22    19    1
    23    22    24    1
    24    19    21    2
    25    19    20    2
