@<TRIPOS>MOLECULE
/tmp/ewbell/vina_2hd6_2hd6_lig/vina/vina1.pdbqt
 24 25 0 0 0
SMALL
GASTEIGER

@<TRIPOS>ATOM
      1  C1        -5.4490    2.3020   15.9730 C.ar  261  INH261      0.0740
      2  C2        -4.0900    2.2050   15.6190 C.ar  261  INH261      0.0270
      3  C3        -3.5840    2.9800   14.5600 C.ar  261  INH261      0.0310
      4  C4        -4.4380    3.8690   13.8390 C.ar  261  INH261      0.0350
      5  C5        -5.8060    3.9530   14.2090 C.ar  261  INH261      0.0310
      6  C6        -6.3070    3.1740   15.2690 C.ar  261  INH261      0.0270
      7  N2        -3.9640    4.6770   12.7670 N.am  261  INH261     -0.3230
      8  H6        -3.9750    5.6600   12.9540 H     261  INH261      0.1690
      9  C7        -3.4950    4.3420   11.5200 C.2   261  INH261      0.2570
     10  O3        -3.0990    5.1270   10.6740 O.2   261  INH261     -0.2670
     11  C8        -3.5130    2.8560   11.2650 C.ar  261  INH261      0.0480
     12  C13       -2.3160    2.0500   11.1510 C.ar  261  INH261      0.0130
     13  C12       -2.4420    0.6530   10.9090 C.ar  261  INH261      0.0190
     14  C11       -3.7090    0.0490   10.7810 C.ar  261  INH261      0.0010
     15  C10       -4.8770    0.8450   10.8950 C.ar  261  INH261      0.0010
     16  C9        -4.7770    2.2260   11.1320 C.ar  261  INH261      0.0180
     17  S2        -0.6830    2.7970   11.3120 S.3   261  INH261     -0.1420
     18  H          0.0010    2.6450   10.1470 H     261  INH261      0.1070
     19  S1        -6.0700    1.3460   17.2990 S.O2  261  INH261      0.2390
     20  O2        -6.1660    2.1420   18.4710 O.2   261  INH261     -0.2060
     21  O1        -5.3200    0.1220   17.3670 O.2   261  INH261     -0.2060
     22  N1        -7.5960    0.8900   16.8920 N.3   261  INH261     -0.2250
     23  H1        -8.3530    1.5340   16.9910 H     261  INH261      0.1360
     24  H         -7.5680    0.6160   15.9090 H     261  INH261      0.1360
@<TRIPOS>BOND
     1    18    17    1
     2    10     9    2
     3    14    15   ar
     4    14    13   ar
     5    15    16   ar
     6    13    12   ar
     7    16    11   ar
     8    12    11   ar
     9    12    17    1
    10    11     9    1
    11     9     7   am
    12     7     8    1
    13     7     4    1
    14     4     5   ar
    15     4     3   ar
    16     5     6   ar
    17     3     2   ar
    18     6     1   ar
    19     2     1   ar
    20    24    22    1
    21     1    19    1
    22    22    23    1
    23    22    19    1
    24    19    21    2
    25    19    20    2
