@<TRIPOS>MOLECULE
/tmp/ewbell/vina_2hd6_2hd6_lig/vina/vina3.pdbqt
 24 25 0 0 0
SMALL
GASTEIGER

@<TRIPOS>ATOM
      1  C1         5.4030   -6.7640    5.7090 C.ar  261  INH261      0.0740
      2  C2         5.0840   -5.3980    5.5880 C.ar  261  INH261      0.0270
      3  C3         5.3390   -4.7210    4.3820 C.ar  261  INH261      0.0310
      4  C4         5.9200   -5.4100    3.2740 C.ar  261  INH261      0.0350
      5  C5         6.2370   -6.7870    3.4140 C.ar  261  INH261      0.0310
      6  C6         5.9800   -7.4580    4.6240 C.ar  261  INH261      0.0270
      7  N2         6.1870   -4.7650    2.0330 N.am  261  INH261     -0.3230
      8  H6         5.4860   -4.9090    1.3330 H     261  INH261      0.1690
      9  C7         7.2400   -3.9800    1.6290 C.2   261  INH261      0.2570
     10  O3         7.3620   -3.4630    0.5310 O.2   261  INH261     -0.2670
     11  C8         8.2850   -3.8020    2.7010 C.ar  261  INH261      0.0480
     12  C13        9.4060   -4.6990    2.8830 C.ar  261  INH261      0.0130
     13  C12       10.3380   -4.4420    3.9260 C.ar  261  INH261      0.0190
     14  C11       10.1860   -3.3310    4.7790 C.ar  261  INH261      0.0010
     15  C10        9.0860   -2.4550    4.5940 C.ar  261  INH261      0.0010
     16  C9         8.1520   -2.6900    3.5720 C.ar  261  INH261      0.0180
     17  S2         9.6250   -6.1280    1.8050 S.3   261  INH261     -0.1420
     18  H         10.6710   -5.9060    0.9640 H     261  INH261      0.1070
     19  S1         5.0710   -7.6030    7.2080 S.O2  261  INH261      0.2390
     20  O2         4.9980   -9.0020    6.9760 O.2   261  INH261     -0.2060
     21  O1         3.9580   -6.9610    7.8520 O.2   261  INH261     -0.2060
     22  N1         6.3520   -7.3380    8.2030 N.3   261  INH261     -0.2250
     23  H1         7.1370   -6.8120    7.8770 H     261  INH261      0.1360
     24  H          5.9910   -6.8500    9.0230 H     261  INH261      0.1360
@<TRIPOS>BOND
     1    10     9    2
     2    18    17    1
     3     8     7    1
     4     9     7   am
     5     9    11    1
     6    17    12    1
     7     7     4    1
     8    11    12   ar
     9    11    16   ar
    10    12    13   ar
    11     4     5   ar
    12     4     3   ar
    13     5     6   ar
    14    16    15   ar
    15    13    14   ar
    16     3     2   ar
    17    15    14   ar
    18     6     1   ar
    19     2     1   ar
    20     1    19    1
    21    20    19    2
    22    19    21    2
    23    19    22    1
    24    23    22    1
    25    22    24    1
