@<TRIPOS>MOLECULE
./ligand/1syi_lig.pdb
 30 31 0 0 0
SMALL
GASTEIGER

@<TRIPOS>ATOM
      1  N1        20.0300   14.7180   59.9580 N.4   523  INH523      0.2302
      2  C1        21.1450   15.0390   58.9950 C.3   523  INH523      0.0968
      3  C2        21.5240   16.5440   58.8350 C.2   523  INH523      0.4044
      4  O1        22.4710   16.8500   58.0640 O.co2 523  INH523     -0.2399
      5  C3        20.8260   14.5010   57.5680 C.3   523  INH523      0.0811
      6  O2        20.8510   17.3600   59.5430 O.co2 523  INH523     -0.2399
      7  H1        19.8170   14.8300   57.2800 H     523  INH523      0.0555
      8  H2        21.5610   14.9100   56.8600 H     523  INH523      0.0555
      9  H3        22.0380   14.5170   59.3700 H     523  INH523      0.0988
     10  H4        20.2610   15.0760   60.8710 H     523  INH523      0.2003
     11  H5        19.9080   13.7190   60.0100 H     523  INH523      0.2003
     12  H6        19.1750   15.1440   59.6370 H     523  INH523      0.2003
     13  N2        20.8810   13.0440   57.5190 N.ar  523  INH523     -0.2914
     14  C4        22.2080   12.3740   57.4970 C.ar  523  INH523      0.3297
     15  N3        22.2400   11.0200   57.4930 N.ar  523  INH523     -0.2747
     16  C5        19.7250   12.2500   57.6040 C.ar  523  INH523      0.0320
     17  O3        23.2100   13.1160   57.4860 O.2   523  INH523     -0.2465
     18  C6        19.7900   10.8900   57.6220 C.ar  523  INH523      0.0365
     19  C7        21.1160   10.2230   57.5340 C.ar  523  INH523      0.2574
     20  O4        21.1840    8.9800   57.4860 O.2   523  INH523     -0.2674
     21  C8        18.2910   12.7570   57.6120 C.3   523  INH523     -0.0114
     22  C9        17.4400   11.4640   57.6990 C.3   523  INH523     -0.0435
     23  C10       18.4250   10.2590   57.6340 C.3   523  INH523     -0.0206
     24  H7        23.1330   10.5710   57.4580 H     523  INH523      0.1734
     25  H8        18.0670   13.3120   56.6890 H     523  INH523      0.0328
     26  H9        18.1100   13.4050   58.4820 H     523  INH523      0.0328
     27  H10       16.7340   11.4200   56.8560 H     523  INH523      0.0272
     28  H11       16.8820   11.4430   58.6460 H     523  INH523      0.0272
     29  H12       18.3040    9.6100   58.5140 H     523  INH523      0.0315
     30  H13       18.2600    9.6710   56.7190 H     523  INH523      0.0315
@<TRIPOS>BOND
     1     1     2    1
     2     1    10    1
     3     1    11    1
     4     1    12    1
     5     2     5    1
     6     2     9    1
     7     2     3    1
     8     3     6   ar
     9     3     4   ar
    10     5     7    1
    11     5     8    1
    12     5    13    1
    13    13    16   ar
    14    13    14   ar
    15    14    17    2
    16    14    15   ar
    17    15    24    1
    18    15    19   ar
    19    16    18   ar
    20    16    21    1
    21    18    19   ar
    22    18    23    1
    23    19    20    2
    24    21    26    1
    25    21    25    1
    26    21    22    1
    27    22    28    1
    28    22    27    1
    29    22    23    1
    30    23    30    1
    31    23    29    1
