@<TRIPOS>MOLECULE
/tmp/ewbell/vina_1syi_1syi_lig/vina/vina3.pdbqt
 22 23 0 0 0
SMALL
GASTEIGER

@<TRIPOS>ATOM
      1  N2        32.6740   16.9400   63.0330 N.ar  523  INH523     -0.3000
      2  C4        33.3170   15.8290   63.7830 C.ar  523  INH523      0.3290
      3  N3        34.3940   16.1170   64.5520 N.ar  523  INH523     -0.2750
      4  C5        33.2490   18.2200   63.0980 C.ar  523  INH523      0.0280
      5  O3        32.8140   14.6960   63.6480 O.2   523  INH523     -0.2460
      6  C6        34.3470   18.4750   63.8610 C.ar  523  INH523      0.0330
      7  C7        34.9480   17.3750   64.6620 C.ar  523  INH523      0.2570
      8  O4        35.9140   17.6100   65.4130 O.2   523  INH523     -0.2670
      9  C8        32.7170   19.4740   62.4200 C.3   523  INH523      0.0580
     10  C9        33.7180   20.5790   62.8450 C.2   523  INH523      0.0110
     11  C10       34.7290   19.9290   63.8360 C.2   523  INH523      0.0460
     12  H7        34.8130   15.3730   65.0720 H     523  INH523      0.1730
     13  C3        31.5400   16.6420   62.1650 C.3   523  INH523      0.1770
     14  C1        30.1910   16.7030   62.9430 C.3   523  INH523      0.2980
     15  N1        29.7850   15.3350   63.4310 N.4   523  INH523     -0.0640
     16  H4        29.3980   15.4110   64.3580 H     523  INH523      0.2750
     17  H5        30.5920   14.7330   63.4540 H     523  INH523      0.2750
     18  H6        29.0940   14.9460   62.8100 H     523  INH523      0.2750
     19  C2        29.1750   17.4520   62.0270 C.2   523  INH523      0.1730
     20  O2        29.3110   18.7150   61.9710 O.2   523  INH523     -0.6480
     21  O1        28.3260   16.7770   61.3870 O.3   523  INH523     -0.7750
     22  H         27.4240   16.7960   61.6420 H     523  INH523      0.1670
@<TRIPOS>BOND
     1    21    22    1
     2    21    19    1
     3    20    19    2
     4    19    14    1
     5    13    14    1
     6    13     1    1
     7     9    10    1
     8     9     4    1
     9    18    15    1
    10    10    11    2
    11    14    15    1
    12     1     4   ar
    13     1     2   ar
    14     4     6   ar
    15    15    17    1
    16    15    16    1
    17     5     2    2
    18     2     3   ar
    19    11     6    1
    20     6     7   ar
    21     3     7   ar
    22     3    12    1
    23     7     8    2
