@<TRIPOS>MOLECULE
/tmp/ewbell/vina_1syi_1syi_lig/vina/vina4.pdbqt
 22 23 0 0 0
SMALL
GASTEIGER

@<TRIPOS>ATOM
      1  N2        21.1440   11.7670   57.3520 N.ar  523  INH523     -0.3000
      2  C4        21.7810   10.5160   56.8640 C.ar  523  INH523      0.3290
      3  N3        20.9810    9.4600   56.5800 N.ar  523  INH523     -0.2750
      4  C5        19.7550   11.7800   57.5620 C.ar  523  INH523      0.0280
      5  O3        23.0230   10.5260   56.7510 O.2   523  INH523     -0.2460
      6  C6        18.9790   10.6940   57.2900 C.ar  523  INH523      0.0330
      7  C7        19.6120    9.4660   56.7400 C.ar  523  INH523      0.2570
      8  O4        18.9050    8.4890   56.4270 O.2   523  INH523     -0.2670
      9  C8        18.9330   12.9700   58.0310 C.3   523  INH523      0.0580
     10  C9        17.4800   12.4280   58.0670 C.2   523  INH523      0.0110
     11  C10       17.5190   10.9720   57.5160 C.2   523  INH523      0.0460
     12  H7        21.4100    8.6260   56.2320 H     523  INH523      0.1730
     13  C3        21.9920   12.9000   57.7050 C.3   523  INH523      0.1770
     14  C1        21.4000   14.2440   57.1820 C.3   523  INH523      0.2980
     15  N1        21.9000   14.5520   55.7930 N.4   523  INH523     -0.0640
     16  H4        21.9450   13.7010   55.2560 H     523  INH523      0.2750
     17  H5        22.8190   14.9610   55.8490 H     523  INH523      0.2750
     18  H6        21.2710   15.1990   55.3450 H     523  INH523      0.2750
     19  C2        21.6750   15.3160   58.2810 C.2   523  INH523      0.1730
     20  O2        22.1420   16.4240   57.8660 O.2   523  INH523     -0.6480
     21  O1        21.3930   15.0410   59.4770 O.3   523  INH523     -0.7750
     22  H         20.9550   14.2380   59.6830 H     523  INH523      0.1670
@<TRIPOS>BOND
     1    16    15    1
     2    18    15    1
     3    15    17    1
     4    15    14    1
     5    12     3    1
     6     8     7    2
     7     3     7   ar
     8     3     2   ar
     9     7     6   ar
    10     5     2    2
    11     2     1   ar
    12    14    13    1
    13    14    19    1
    14     6    11    1
    15     6     4   ar
    16     1     4   ar
    17     1    13    1
    18    11    10    2
    19     4     9    1
    20    20    19    2
    21     9    10    1
    22    19    21    1
    23    21    22    1
