@<TRIPOS>MOLECULE
/tmp/ewbell/vina_1syi_1syi_lig/vina/vina5.pdbqt
 22 23 0 0 0
SMALL
GASTEIGER

@<TRIPOS>ATOM
      1  N2        31.9390   17.7830   62.4000 N.ar  523  INH523     -0.3000
      2  C4        31.6470   19.2050   62.0800 C.ar  523  INH523      0.3290
      3  N3        32.5090   20.1500   62.5230 N.ar  523  INH523     -0.2750
      4  C5        33.0540   17.4870   63.2040 C.ar  523  INH523      0.0280
      5  O3        30.6140   19.4290   61.4190 O.2   523  INH523     -0.2460
      6  C6        33.8900   18.4620   63.6550 C.ar  523  INH523      0.0330
      7  C7        33.6310   19.8760   63.2770 C.ar  523  INH523      0.2570
      8  O4        34.4240   20.7690   63.6310 O.2   523  INH523     -0.2670
      9  C8        33.5190   16.0970   63.6100 C.3   523  INH523      0.0580
     10  C9        34.7860   16.3640   64.4630 C.2   523  INH523      0.0110
     11  C10       35.0530   17.8980   64.4240 C.2   523  INH523      0.0460
     12  H7        32.3220   21.1040   62.2900 H     523  INH523      0.1730
     13  C3        30.9990   16.7530   61.9690 C.3   523  INH523      0.1770
     14  C1        29.8780   16.5230   63.0260 C.3   523  INH523      0.2980
     15  N1        30.2180   15.3680   63.9350 N.4   523  INH523     -0.0640
     16  H4        30.2730   14.5200   63.3940 H     523  INH523      0.2750
     17  H5        29.5020   15.2710   64.6370 H     523  INH523      0.2750
     18  H6        31.1050   15.5400   64.3810 H     523  INH523      0.2750
     19  C2        28.5330   16.4270   62.2430 C.2   523  INH523      0.1730
     20  O2        28.3620   17.2990   61.3320 O.2   523  INH523     -0.6480
     21  O1        27.7330   15.4960   62.5260 O.3   523  INH523     -0.7750
     22  H         26.8090   15.6330   62.4500 H     523  INH523      0.1670
@<TRIPOS>BOND
     1    20    19    2
     2     5     2    2
     3    13     1    1
     4    13    14    1
     5     2     1   ar
     6     2     3   ar
     7    19    21    1
     8    19    14    1
     9    12     3    1
    10     1     4   ar
    11    22    21    1
    12     3     7   ar
    13    14    15    1
    14     4     9    1
    15     4     6   ar
    16     7     8    2
    17     7     6   ar
    18    16    15    1
    19     9    10    1
    20     6    11    1
    21    15    18    1
    22    15    17    1
    23    11    10    2
