@<TRIPOS>MOLECULE
/tmp/ewbell/vina_1syi_1syi_lig/vina/vina1.pdbqt
 22 23 0 0 0
SMALL
GASTEIGER

@<TRIPOS>ATOM
      1  N2        20.8060   13.0300   57.4310 N.ar  523  INH523     -0.3000
      2  C4        22.1420   12.3800   57.3790 C.ar  523  INH523      0.3290
      3  N3        22.1930   11.0260   57.3490 N.ar  523  INH523     -0.2750
      4  C5        19.6630   12.2180   57.5160 C.ar  523  INH523      0.0280
      5  O3        23.1330   13.1360   57.3690 O.2   523  INH523     -0.2460
      6  C6        19.7470   10.8590   57.5070 C.ar  523  INH523      0.0330
      7  C7        21.0810   10.2130   57.3890 C.ar  523  INH523      0.2570
      8  O4        21.1660    8.9720   57.3170 O.2   523  INH523     -0.2670
      9  C8        18.2220   12.7040   57.5520 C.3   523  INH523      0.0580
     10  C9        17.3900   11.3980   57.6260 C.2   523  INH523      0.0110
     11  C10       18.3910   10.2090   57.5250 C.2   523  INH523      0.0460
     12  H7        23.0920   10.5910   57.2930 H     523  INH523      0.1730
     13  C3        20.7310   14.4850   57.5080 C.3   523  INH523      0.1770
     14  C1        21.1820   15.0090   58.9050 C.3   523  INH523      0.2980
     15  N1        20.1680   14.6640   59.9670 N.4   523  INH523     -0.0640
     16  H4        19.3120   15.1640   59.7880 H     523  INH523      0.2750
     17  H5        20.5260   14.9270   60.8710 H     523  INH523      0.2750
     18  H6        19.9880   13.6730   59.9520 H     523  INH523      0.2750
     19  C2        21.5300   16.5190   58.7290 C.2   523  INH523      0.1730
     20  O2        22.5190   16.7720   57.9710 O.2   523  INH523     -0.6480
     21  O1        20.8100   17.3760   59.3050 O.3   523  INH523     -0.7750
     22  H         21.0310   18.2850   59.2530 H     523  INH523      0.1670
@<TRIPOS>BOND
     1    12     3    1
     2     8     7    2
     3     3     2   ar
     4     3     7   ar
     5     5     2    2
     6     2     1   ar
     7     7     6   ar
     8     1    13    1
     9     1     4   ar
    10     6     4   ar
    11     6    11    1
    12    13    14    1
    13     4     9    1
    14    11    10    2
    15     9    10    1
    16    20    19    2
    17    19    14    1
    18    19    21    1
    19    14    15    1
    20    22    21    1
    21    16    15    1
    22    18    15    1
    23    15    17    1
