@<TRIPOS>MOLECULE
/tmp/ewbell/vina_1syi_1syi_lig/vina/vina2.pdbqt
 22 23 0 0 0
SMALL
GASTEIGER

@<TRIPOS>ATOM
      1  N2        32.4080   17.2200   63.3960 N.ar  523  INH523     -0.3000
      2  C4        32.9670   18.4270   62.7340 C.ar  523  INH523      0.3290
      3  N3        32.2130   19.0490   61.7960 N.ar  523  INH523     -0.2750
      4  C5        31.1570   16.7370   62.9760 C.ar  523  INH523      0.0280
      5  O3        34.1070   18.7850   63.0910 O.2   523  INH523     -0.2460
      6  C6        30.4320   17.3710   62.0130 C.ar  523  INH523      0.0330
      7  C7        30.9660   18.6150   61.3990 C.ar  523  INH523      0.2570
      8  O4        30.2830   19.2380   60.5630 O.2   523  INH523     -0.2670
      9  C8        30.4220   15.5370   63.5530 C.3   523  INH523      0.0580
     10  C9        29.1050   15.4800   62.7370 C.2   523  INH523      0.0110
     11  C10       29.0950   16.7170   61.7910 C.2   523  INH523      0.0460
     12  H7        32.5820   19.8720   61.3660 H     523  INH523      0.1730
     13  C3        33.2220   16.5110   64.3770 C.3   523  INH523      0.1770
     14  C1        34.2110   15.5210   63.6920 C.3   523  INH523      0.2980
     15  N1        33.6980   14.1040   63.7640 N.4   523  INH523     -0.0640
     16  H4        33.6600   13.8100   64.7270 H     523  INH523      0.2750
     17  H5        34.3170   13.4960   63.2520 H     523  INH523      0.2750
     18  H6        32.7750   14.0600   63.3630 H     523  INH523      0.2750
     19  C2        35.6190   15.7900   64.3090 C.2   523  INH523      0.1730
     20  O2        36.1040   14.8440   65.0070 O.2   523  INH523     -0.6480
     21  O1        36.1900   16.8840   64.0580 O.3   523  INH523     -0.7750
     22  H         36.0350   17.6300   64.6040 H     523  INH523      0.1670
@<TRIPOS>BOND
     1     8     7    2
     2    12     3    1
     3     7     3   ar
     4     7     6   ar
     5    11     6    1
     6    11    10    2
     7     3     2   ar
     8     6     4   ar
     9     2     5    2
    10     2     1   ar
    11    10     9    1
    12     4     1   ar
    13     4     9    1
    14    17    15    1
    15    18    15    1
    16     1    13    1
    17    14    15    1
    18    14    19    1
    19    14    13    1
    20    15    16    1
    21    21    19    1
    22    21    22    1
    23    19    20    2
