@<TRIPOS>MOLECULE
./ligand/1s50_lig.pdb
 18 17 0 0 0
SMALL
GASTEIGER

@<TRIPOS>ATOM
      1  N1        11.2350    2.0370   -1.4510 N.4   261  INH261      0.2289
      2  C1        11.2960    3.4810   -1.8360 C.3   261  INH261      0.0790
      3  C2        12.6620    3.8100   -2.4330 C.2   261  INH261      0.4026
      4  O1        13.3860    2.8550   -2.8120 O.co2 261  INH261     -0.2400
      5  C3        11.0320    4.3670   -0.6100 C.3   261  INH261      0.0111
      6  C4         9.5570    4.5100   -0.2210 C.3   261  INH261      0.0548
      7  C5         8.7420    5.2660   -1.2640 C.2   261  INH261      0.3562
      8  O2         9.3340    6.0960   -1.9860 O.co2 261  INH261     -0.2464
      9  O3         7.5140    5.0450   -1.3470 O.co2 261  INH261     -0.2464
     10  O4        12.9950    5.0120   -2.5170 O.co2 261  INH261     -0.2400
     11  H1        10.3300    1.8320   -1.0590 H     261  INH261      0.2002
     12  H2        11.9500    1.8410   -0.7680 H     261  INH261      0.2002
     13  H3        11.3850    1.4650   -2.2670 H     261  INH261      0.2002
     14  H4        10.5210    3.6800   -2.5910 H     261  INH261      0.0970
     15  H5        11.4280    5.3710   -0.8230 H     261  INH261      0.0331
     16  H6        11.5700    3.9340    0.2460 H     261  INH261      0.0331
     17  H7         9.4960    5.0530    0.7340 H     261  INH261      0.0381
     18  H8         9.1270    3.5050   -0.0990 H     261  INH261      0.0381
@<TRIPOS>BOND
     1     1    12    1
     2     1    11    1
     3     1     2    1
     4     1    13    1
     5     2     5    1
     6     2     3    1
     7     2    14    1
     8     3    10   ar
     9     3     4   ar
    10     5    16    1
    11     5     6    1
    12     5    15    1
    13     6    17    1
    14     6    18    1
    15     6     7    1
    16     7     9   ar
    17     7     8   ar
