@<TRIPOS>MOLECULE
/tmp/ewbell/vina_1s50_1s50_lig/vina/vina4.pdbqt
 15 14 0 0 0
SMALL
GASTEIGER

@<TRIPOS>ATOM
      1  C1        10.6380    4.1350   -0.3990 C.3   261  INH261      0.2800
      2  N1        10.5960    4.1700   -1.8940 N.4   261  INH261     -0.0650
      3  H2        11.4230    3.7290   -2.2640 H     261  INH261      0.2750
      4  H1         9.7790    3.6780   -2.2180 H     261  INH261      0.2750
      5  H3        10.5580    5.1270   -2.2070 H     261  INH261      0.2750
      6  C3         9.5330    5.0280    0.1820 C.3   261  INH261      0.0540
      7  C4         8.4920    5.5120   -0.8320 C.3   261  INH261      0.1120
      8  C5         7.0700    5.1110   -0.4570 C.2   261  INH261      0.1390
      9  O3         6.8410    3.9230   -0.1440 O.2   261  INH261     -0.6500
     10  O2         6.1880    5.9960   -0.4590 O.3   261  INH261     -0.7760
     11  H          5.2930    5.7650   -0.3080 H     261  INH261      0.1670
     12  C2        10.4680    2.7020    0.0990 C.2   261  INH261      0.1710
     13  O4         9.8620    2.5210    1.1770 O.2   261  INH261     -0.6480
     14  O1        10.9480    1.7740   -0.5990 O.3   261  INH261     -0.7750
     15  H         11.0330    1.8800   -1.5260 H     261  INH261      0.1670
@<TRIPOS>BOND
     1     3     2    1
     2     4     2    1
     3     5     2    1
     4     2     1    1
     5    15    14    1
     6     7     8    1
     7     7     6    1
     8    14    12    1
     9    10     8    1
    10    10    11    1
    11     8     9    2
    12     1    12    1
    13     1     6    1
    14    12    13    2
