@<TRIPOS>MOLECULE
/tmp/ewbell/vina_1s50_1s50_lig/vina/vina2.pdbqt
 15 14 0 0 0
SMALL
GASTEIGER

@<TRIPOS>ATOM
      1  C1        11.1080    3.6930   -1.6420 C.3   261  INH261      0.2800
      2  N1        11.0060    2.4560   -0.8070 N.4   261  INH261     -0.0650
      3  H2        10.4000    2.6320   -0.0210 H     261  INH261      0.2750
      4  H1        10.6270    1.7060   -1.3630 H     261  INH261      0.2750
      5  H3        11.9210    2.1990   -0.4740 H     261  INH261      0.2750
      6  C3        11.0190    4.9410   -0.7530 C.3   261  INH261      0.0540
      7  C4         9.7050    5.7220   -0.8650 C.3   261  INH261      0.1120
      8  C5         8.5030    4.9300   -0.3630 C.2   261  INH261      0.1390
      9  O3         7.4550    4.9270   -1.0450 O.2   261  INH261     -0.6500
     10  O2         8.6200    4.2970    0.7080 O.3   261  INH261     -0.7760
     11  H          9.2360    3.5940    0.7710 H     261  INH261      0.1670
     12  C2        12.4240    3.6980   -2.4170 C.2   261  INH261      0.1710
     13  O4        12.9460    4.8010   -2.6850 O.2   261  INH261     -0.6480
     14  O1        12.9170    2.5910   -2.7490 O.3   261  INH261     -0.7750
     15  H         12.4570    2.0320   -3.3440 H     261  INH261      0.1670
@<TRIPOS>BOND
     1    15    14    1
     2    14    12    1
     3    13    12    2
     4    12     1    1
     5     1     2    1
     6     1     6    1
     7     4     2    1
     8     9     8    2
     9     7     6    1
    10     7     8    1
    11     2     5    1
    12     2     3    1
    13     8    10    1
    14    10    11    1
