@<TRIPOS>MOLECULE
/tmp/ewbell/vina_1s50_1s50_lig/vina/vina5.pdbqt
 15 14 0 0 0
SMALL
GASTEIGER

@<TRIPOS>ATOM
      1  C1        10.2810    3.2730    0.4240 C.3   261  INH261      0.2800
      2  N1        10.7220    3.0720   -0.9900 N.4   261  INH261     -0.0650
      3  H2        11.2080    3.8950   -1.3110 H     261  INH261      0.2750
      4  H1        11.3390    2.2770   -1.0390 H     261  INH261      0.2750
      5  H3         9.9170    2.9080   -1.5740 H     261  INH261      0.2750
      6  C3        10.0020    4.7610    0.6850 C.3   261  INH261      0.0540
      7  C4        10.5250    5.7150   -0.3940 C.3   261  INH261      0.1120
      8  C5         9.4500    6.1160   -1.3980 C.2   261  INH261      0.1390
      9  O3         9.0010    5.2500   -2.1800 O.2   261  INH261     -0.6500
     10  O2         9.0440    7.2970   -1.3850 O.3   261  INH261     -0.7760
     11  H          9.4300    7.9320   -1.9580 H     261  INH261      0.1670
     12  C2         9.0260    2.4500    0.7080 C.2   261  INH261      0.1710
     13  O4         7.9170    2.9460    0.4150 O.2   261  INH261     -0.6480
     14  O1         9.1710    1.3130    1.2230 O.3   261  INH261     -0.7750
     15  H          8.5750    0.6220    1.0090 H     261  INH261      0.1670
@<TRIPOS>BOND
     1     9     8    2
     2    11    10    1
     3     5     2    1
     4     8    10    1
     5     8     7    1
     6     3     2    1
     7     4     2    1
     8     2     1    1
     9     7     6    1
    10    13    12    2
    11     1     6    1
    12     1    12    1
    13    12    14    1
    14    15    14    1
