@<TRIPOS>MOLECULE
/tmp/ewbell/vina_1s50_1s50_lig/vina/vina1.pdbqt
 15 14 0 0 0
SMALL
GASTEIGER

@<TRIPOS>ATOM
      1  C1         9.0330    4.2660    0.0220 C.3   261  INH261      0.2800
      2  N1         9.5070    2.8960    0.3920 N.4   261  INH261     -0.0650
      3  H2         9.7970    2.4050   -0.4390 H     261  INH261      0.2750
      4  H1        10.2850    2.9710    1.0280 H     261  INH261      0.2750
      5  H3         8.7580    2.3900    0.8360 H     261  INH261      0.2750
      6  C3         9.7210    4.7330   -1.2690 C.3   261  INH261      0.0540
      7  C4        11.2510    4.7550   -1.2150 C.3   261  INH261      0.1120
      8  C5        11.8900    3.7320   -2.1460 C.2   261  INH261      0.1390
      9  O3        12.8010    4.1040   -2.9180 O.2   261  INH261     -0.6500
     10  O2        11.4890    2.5510   -2.0880 O.3   261  INH261     -0.7760
     11  H         11.2370    2.1810   -1.2640 H     261  INH261      0.1670
     12  C2         7.5180    4.2660   -0.1640 C.2   261  INH261      0.1710
     13  O4         7.0030    5.2050   -0.8090 O.2   261  INH261     -0.6480
     14  O1         6.8610    3.3220    0.3430 O.3   261  INH261     -0.7750
     15  H          6.9630    3.1140    1.2510 H     261  INH261      0.1670
@<TRIPOS>BOND
     1     9     8    2
     2     8    10    1
     3     8     7    1
     4    10    11    1
     5     6     7    1
     6     6     1    1
     7    13    12    2
     8     3     2    1
     9    12     1    1
    10    12    14    1
    11     1     2    1
    12    14    15    1
    13     2     5    1
    14     2     4    1
