@<TRIPOS>MOLECULE
/tmp/ewbell/vina_1s50_1s50_lig/vina/vina3.pdbqt
 15 14 0 0 0
SMALL
GASTEIGER

@<TRIPOS>ATOM
      1  C1         9.2650    5.0330   -0.3620 C.3   261  INH261      0.2800
      2  N1         7.8640    4.5440   -0.5460 N.4   261  INH261     -0.0650
      3  H2         7.4430    5.0180   -1.3300 H     261  INH261      0.2750
      4  H1         7.8750    3.5520   -0.7190 H     261  INH261      0.2750
      5  H3         7.3290    4.7330    0.2870 H     261  INH261      0.2750
      6  C3        10.0070    4.1450    0.6470 C.3   261  INH261      0.0540
      7  C4        10.1740    2.6830    0.2210 C.3   261  INH261      0.1120
      8  C5         9.3580    1.7220    1.0790 C.2   261  INH261      0.1390
      9  O3         8.1240    1.6500    0.8960 O.2   261  INH261     -0.6500
     10  O2         9.9630    1.0270    1.9220 O.3   261  INH261     -0.7760
     11  H         10.8640    1.2010    2.1140 H     261  INH261      0.1670
     12  C2        10.0030    5.0340   -1.6980 C.2   261  INH261      0.1710
     13  O4        11.2530    5.0570   -1.6820 O.2   261  INH261     -0.6480
     14  O1         9.3170    5.0130   -2.7510 O.3   261  INH261     -0.7750
     15  H          8.5390    4.4920   -2.7930 H     261  INH261      0.1670
@<TRIPOS>BOND
     1    15    14    1
     2    14    12    1
     3    12    13    2
     4    12     1    1
     5     3     2    1
     6     4     2    1
     7     2     1    1
     8     2     5    1
     9     1     6    1
    10     7     6    1
    11     7     8    1
    12     9     8    2
    13     8    10    1
    14    10    11    1
