@<TRIPOS>MOLECULE
./ligand/2qmg_lig.pdb
 84 88 0 0 0
SMALL
GASTEIGER

@<TRIPOS>ATOM
      1  C1        26.8950   15.4300   24.6060 C.ar  393  INH393     -0.0467
      2  C2        25.6140   15.8480   25.0530 C.ar  393  INH393     -0.0490
      3  C3        24.4680   15.0650   24.7210 C.ar  393  INH393     -0.0467
      4  C4        24.6020   13.8730   23.9460 C.ar  393  INH393      0.0377
      5  C5        25.8780   13.4800   23.5200 C.ar  393  INH393     -0.0375
      6  C6        27.0340   14.2440   23.8330 C.ar  393  INH393      0.0379
      7  C7        28.3630   13.7810   23.3640 C.2   393  INH393      0.2469
      8  N1        28.5850   13.5240   21.9940 N.am  393  INH393     -0.2923
      9  O1        29.2740   13.6040   24.1700 O.2   393  INH393     -0.2700
     10  C8        27.6480   13.6690   20.8640 C.3   393  INH393      0.0154
     11  C9        28.5730   14.2600   19.7950 C.3   393  INH393     -0.0354
     12  C10       29.9380   13.5950   20.0480 C.3   393  INH393     -0.0307
     13  C11       29.8790   13.0510   21.4890 C.3   393  INH393      0.0497
     14  C12       29.9180   11.4990   21.4840 C.3   393  INH393      0.0659
     15  C13       25.4770   17.1080   25.8680 C.3   393  INH393     -0.0397
     16  C14       23.4140   13.0730   23.6040 C.2   393  INH393      0.2444
     17  N2        23.6280   11.7170   23.4740 N.am  393  INH393     -0.3055
     18  O2        22.3000   13.5750   23.4400 O.2   393  INH393     -0.2702
     19  C15       22.5560   10.7510   23.1270 C.3   393  INH393      0.0586
     20  C16       22.1050    9.9200   24.3510 C.3   393  INH393      0.1162
     21  C17       23.0700    9.8210   22.0060 C.3   393  INH393     -0.0064
     22  O3        21.0380    9.0950   23.9460 O.3   393  INH393     -0.3844
     23  C18       23.7320   10.5240   20.8460 C.ar  393  INH393     -0.0401
     24  C19       25.0800   10.2200   20.5160 C.ar  393  INH393     -0.0230
     25  C20       25.6970   10.8750   19.4300 C.ar  393  INH393      0.1264
     26  C21       25.0260   11.8350   18.6460 C.ar  393  INH393      0.0088
     27  C22       23.6860   12.1280   18.9880 C.ar  393  INH393      0.1264
     28  C23       23.0280   11.4950   20.0680 C.ar  393  INH393     -0.0230
     29  F1        26.9600   10.5720   19.1390 F     393  INH393     -0.2054
     30  F2        23.0270   13.0290   18.2670 F     393  INH393     -0.2054
     31  C24       19.4600   11.4820   26.4880 C.3   393  INH393      0.1446
     32  C25       20.3570   10.7930   27.5050 C.3   393  INH393      0.0048
     33  N3        21.1720    9.8980   26.6800 N.4   393  INH393      0.2338
     34  C26       20.3960   11.6660   25.2810 C.3   393  INH393      0.0349
     35  C27       21.6090   10.7520   25.5660 C.3   393  INH393      0.0094
     36  O4        18.3940   10.5660   26.2380 O.3   393  INH393     -0.4833
     37  C28       17.4160   10.8750   25.2760 C.ar  393  INH393      0.1212
     38  C29       16.9480   12.1890   24.9230 C.ar  393  INH393     -0.0199
     39  C30       15.9540   12.3440   23.9290 C.ar  393  INH393     -0.0583
     40  C31       15.4200   11.2040   23.2780 C.ar  393  INH393     -0.0615
     41  C32       15.8810    9.9120   23.6250 C.ar  393  INH393     -0.0583
     42  C33       16.8730    9.7540   24.6170 C.ar  393  INH393     -0.0199
     43  C34       29.4570    9.5810   22.8470 C.3   393  INH393      0.0365
     44  O5        29.6270   10.9820   22.7780 O.3   393  INH393     -0.3811
     45  H1        27.7710   16.0170   24.8550 H     393  INH393      0.0628
     46  H2        23.4870   15.3780   25.0600 H     393  INH393      0.0628
     47  H3        25.9850   12.5720   22.9380 H     393  INH393      0.0633
     48  H4        26.8230   14.3540   21.1080 H     393  INH393      0.0465
     49  H5        27.2380   12.6970   20.5520 H     393  INH393      0.0465
     50  H6        28.6470   15.3520   19.9070 H     393  INH393      0.0281
     51  H7        28.2050   14.0190   18.7870 H     393  INH393      0.0281
     52  H8        30.1020   12.7740   19.3350 H     393  INH393      0.0284
     53  H9        30.7480   14.3330   19.9500 H     393  INH393      0.0284
     54  H10       30.7090   13.4440   22.0950 H     393  INH393      0.0523
     55  H11       29.1720   11.1220   20.7690 H     393  INH393      0.0578
     56  H12       30.9200   11.1650   21.1790 H     393  INH393      0.0578
     57  H13       26.4690   17.5600   26.0130 H     393  INH393      0.0278
     58  H14       25.0380   16.8660   26.8470 H     393  INH393      0.0278
     59  H15       24.8240   17.8180   25.3390 H     393  INH393      0.0278
     60  H16       24.5530   11.3660   23.6210 H     393  INH393      0.1494
     61  H17       21.6870   11.3120   22.7530 H     393  INH393      0.0529
     62  H18       22.9530    9.3000   24.6780 H     393  INH393      0.0669
     63  H19       22.2140    9.2520   21.6160 H     393  INH393      0.0332
     64  H20       23.8010    9.1270   22.4470 H     393  INH393      0.0332
     65  H21       21.3290    8.5200   23.2480 H     393  INH393      0.2101
     66  H22       25.6310    9.4890   21.0960 H     393  INH393      0.0649
     67  H23       25.5170   12.3280   17.8150 H     393  INH393      0.0675
     68  H24       22.0000   11.7440   20.3040 H     393  INH393      0.0649
     69  H25       19.0700   12.4470   26.8430 H     393  INH393      0.0789
     70  H26       20.9860   11.5230   28.0350 H     393  INH393      0.0850
     71  H27       19.7620   10.2240   28.2350 H     393  INH393      0.0850
     72  H28       21.9630    9.5520   27.1990 H     393  INH393      0.2018
     73  H29       20.6250    9.1210   26.3440 H     393  INH393      0.2018
     74  H30       19.8920   11.3600   24.3520 H     393  INH393      0.0359
     75  H31       20.7150   12.7150   25.1970 H     393  INH393      0.0359
     76  H32       22.4510   11.3780   25.8970 H     393  INH393      0.0878
     77  H33       17.3580   13.0610   25.4200 H     393  INH393      0.0654
     78  H34       15.6010   13.3340   23.6650 H     393  INH393      0.0619
     79  H35       14.6590   11.3220   22.5150 H     393  INH393      0.0618
     80  H36       15.4710    9.0400   23.1270 H     393  INH393      0.0619
     81  H37       17.2210    8.7600   24.8740 H     393  INH393      0.0654
     82  H38       29.2370    9.2890   23.8850 H     393  INH393      0.0523
     83  H39       30.3790    9.0830   22.5130 H     393  INH393      0.0523
     84  H40       28.6220    9.2810   22.1970 H     393  INH393      0.0523
@<TRIPOS>BOND
     1     1     2   ar
     2     1    45    1
     3     1     6   ar
     4     2     3   ar
     5     2    15    1
     6     3     4   ar
     7     3    46    1
     8     4    16    1
     9     4     5   ar
    10     5     6   ar
    11     5    47    1
    12     6     7    1
    13     7     9    2
    14     7     8   am
    15     8    13    1
    16     8    10    1
    17    10    49    1
    18    10    48    1
    19    10    11    1
    20    11    51    1
    21    11    50    1
    22    11    12    1
    23    12    53    1
    24    12    52    1
    25    12    13    1
    26    13    54    1
    27    13    14    1
    28    14    56    1
    29    14    55    1
    30    14    44    1
    31    15    59    1
    32    15    58    1
    33    15    57    1
    34    16    17   am
    35    16    18    2
    36    17    19    1
    37    17    60    1
    38    19    20    1
    39    19    61    1
    40    19    21    1
    41    20    35    1
    42    20    62    1
    43    20    22    1
    44    21    64    1
    45    21    63    1
    46    21    23    1
    47    22    65    1
    48    23    28   ar
    49    23    24   ar
    50    24    66    1
    51    24    25   ar
    52    25    29    1
    53    25    26   ar
    54    26    67    1
    55    26    27   ar
    56    27    30    1
    57    27    28   ar
    58    28    68    1
    59    31    69    1
    60    31    36    1
    61    31    34    1
    62    31    32    1
    63    32    71    1
    64    32    70    1
    65    32    33    1
    66    33    73    1
    67    33    72    1
    68    33    35    1
    69    34    35    1
    70    34    75    1
    71    34    74    1
    72    35    76    1
    73    36    37    1
    74    37    42   ar
    75    37    38   ar
    76    38    77    1
    77    38    39   ar
    78    39    78    1
    79    39    40   ar
    80    40    79    1
    81    40    41   ar
    82    41    80    1
    83    41    42   ar
    84    42    81    1
    85    43    44    1
    86    43    84    1
    87    43    83    1
    88    43    82    1
