@<TRIPOS>MOLECULE
/tmp/ewbell/vina_2qmg_2qmg_lig/vina/vina4.pdbqt
 48 52 0 0 0
SMALL
GASTEIGER

@<TRIPOS>ATOM
      1  C15       27.3190   13.4500   20.0350 C.3   393  INH393      0.1190
      2  N2        28.2620   14.1230   19.1070 N.am  393  INH393     -0.3490
      3  C14       27.8840   15.1210   18.2340 C.2   393  INH393      0.2520
      4  O2        26.7210   15.5230   18.1680 O.2   393  INH393     -0.2680
      5  H16       29.2210   13.8370   19.1170 H     393  INH393      0.1630
      6  C4        28.9600   15.6660   17.3900 C.ar  393  INH393      0.0330
      7  C3        30.2960   15.7440   17.8890 C.ar  393  INH393      0.0240
      8  C2        31.3440   16.2760   17.0790 C.ar  393  INH393     -0.0600
      9  C1        31.0480   16.7270   15.7660 C.ar  393  INH393      0.0240
     10  C13       32.7540   16.3640   17.6030 C.3   393  INH393      0.0480
     11  C6        29.7190   16.6520   15.2650 C.ar  393  INH393      0.0330
     12  C5        28.6950   16.1140   16.0890 C.ar  393  INH393      0.0340
     13  C7        29.3860   17.1060   13.8920 C.2   393  INH393      0.2540
     14  O1        29.8960   16.5540   12.9190 O.2   393  INH393     -0.2670
     15  N1        28.4700   18.1620   13.6930 N.am  393  INH393     -0.3410
     16  C11       28.0990   18.6320   12.3540 C.3   393  INH393      0.1110
     17  C8        27.7520   18.9620   14.7030 C.3   393  INH393      0.1270
     18  C10       27.7500   20.1180   12.5630 C.3   393  INH393      0.0290
     19  C9        27.8400   20.3600   14.0810 C.3   393  INH393      0.0220
     20  C12       26.8600   17.8520   11.8370 C.3   393  INH393      0.1920
     21  O5        25.8240   18.7480   11.4520 O.3   393  INH393     -0.3940
     22  C34       25.3050   18.5520   10.1530 C.3   393  INH393      0.2010
     23  C16       27.8560   13.4150   21.4850 C.3   393  INH393      0.1710
     24  C27       26.8970   14.0010   22.5580 C.3   393  INH393      0.2190
     25  N3        26.9050   13.2120   23.7980 N.4   393  INH393     -0.0660
     26  C25       25.6740   13.6230   24.4790 C.3   393  INH393      0.2650
     27  H29       26.8920   12.2250   23.5950 H     393  INH393      0.2770
     28  H28       27.7140   13.4300   24.3570 H     393  INH393      0.2770
     29  C24       24.6300   13.5610   23.3750 C.3   393  INH393      0.1560
     30  C26       25.4080   14.0560   22.1430 C.3   393  INH393      0.0700
     31  O4        24.2500   12.1870   23.2850 O.3   393  INH393     -0.3440
     32  C28       22.9960   11.7750   23.7680 C.ar  393  INH393      0.0690
     33  C33       22.8790   10.3850   23.9720 C.ar  393  INH393      0.0370
     34  C32       21.6750    9.8280   24.4540 C.ar  393  INH393      0.0030
     35  C31       20.5670   10.6600   24.7370 C.ar  393  INH393      0.0000
     36  C30       20.6650   12.0600   24.5370 C.ar  393  INH393      0.0030
     37  C29       21.8690   12.6220   24.0550 C.ar  393  INH393      0.0370
     38  O3        28.0950   12.0700   21.8270 O.3   393  INH393     -0.3910
     39  H21       27.3350   11.5460   21.6030 H     393  INH393      0.2100
     40  C17       27.0590   12.0160   19.5240 C.3   393  INH393      0.0660
     41  C18       25.6390   11.5310   19.6790 C.ar  393  INH393     -0.0500
     42  C23       24.5440   12.2360   19.0870 C.ar  393  INH393      0.0490
     43  C22       23.2290   11.7480   19.2600 C.ar  393  INH393      0.1190
     44  C21       22.9510   10.5760   20.0000 C.ar  393  INH393      0.0840
     45  F2        22.2160   12.4090   18.7090 F     393  INH393     -0.2060
     46  C20       24.0470    9.8990   20.5710 C.ar  393  INH393      0.1190
     47  C19       25.3760   10.3500   20.4240 C.ar  393  INH393      0.0490
     48  F1        23.8260    8.7910   21.2760 F     393  INH393     -0.2060
@<TRIPOS>BOND
     1    22    21    1
     2    21    20    1
     3    20    16    1
     4    16    18    1
     5    16    15    1
     6    18    19    1
     7    14    13    2
     8    15    13   am
     9    15    17    1
    10    13    11    1
    11    19    17    1
    12    11     9   ar
    13    11    12   ar
    14     9     8   ar
    15    12     6   ar
    16     8    10    1
    17     8     7   ar
    18     6     7   ar
    19     6     3    1
    20     4     3    2
    21     3     2   am
    22    45    43    1
    23    42    43   ar
    24    42    41   ar
    25     2     5    1
    26     2     1    1
    27    43    44   ar
    28    40    41    1
    29    40     1    1
    30    41    47   ar
    31    44    46   ar
    32     1    23    1
    33    47    46   ar
    34    46    48    1
    35    23    38    1
    36    23    24    1
    37    39    38    1
    38    30    24    1
    39    30    29    1
    40    24    25    1
    41    31    29    1
    42    31    32    1
    43    29    26    1
    44    27    25    1
    45    32    33   ar
    46    32    37   ar
    47    25    28    1
    48    25    26    1
    49    33    34   ar
    50    37    36   ar
    51    34    35   ar
    52    36    35   ar
