@<TRIPOS>MOLECULE
/tmp/ewbell/vina_2qmg_2qmg_lig/vina/vina3.pdbqt
 48 52 0 0 0
SMALL
GASTEIGER

@<TRIPOS>ATOM
      1  C15       27.4090   13.4800   20.2160 C.3   393  INH393      0.1190
      2  N2        28.4090   14.1760   19.3690 N.am  393  INH393     -0.3490
      3  C14       28.0720   15.0820   18.3860 C.2   393  INH393      0.2520
      4  O2        26.8990   15.3760   18.1470 O.2   393  INH393     -0.2680
      5  H16       29.3790   13.9760   19.5190 H     393  INH393      0.1630
      6  C4        29.2030   15.6680   17.6470 C.ar  393  INH393      0.0330
      7  C3        29.0810   15.9500   16.2520 C.ar  393  INH393      0.0240
      8  C2        30.1750   16.5120   15.5280 C.ar  393  INH393     -0.0600
      9  C1        31.3900   16.7920   16.2080 C.ar  393  INH393      0.0240
     10  C13       30.0530   16.8090   14.0560 C.3   393  INH393      0.0480
     11  C6        31.5150   16.5120   17.5960 C.ar  393  INH393      0.0330
     12  C5        30.4110   15.9560   18.2950 C.ar  393  INH393      0.0340
     13  C7        32.7700   16.8050   18.3310 C.2   393  INH393      0.2540
     14  O1        32.8310   17.7720   19.0880 O.2   393  INH393     -0.2670
     15  N1        33.8970   15.9670   18.1810 N.am  393  INH393     -0.3410
     16  C11       35.1510   16.2090   18.9020 C.3   393  INH393      0.1110
     17  C8        34.0490   14.7700   17.3330 C.3   393  INH393      0.1270
     18  C10       36.2340   15.6260   17.9740 C.3   393  INH393      0.0290
     19  C9        35.4750   14.9670   16.8070 C.3   393  INH393      0.0220
     20  C12       35.1420   15.4600   20.2620 C.3   393  INH393      0.1920
     21  O5        34.6670   16.3070   21.3020 O.3   393  INH393     -0.3940
     22  C34       33.4960   15.8640   21.9560 C.3   393  INH393      0.2010
     23  C16       27.8460   13.4200   21.6990 C.3   393  INH393      0.1710
     24  C27       26.7890   13.9300   22.7180 C.3   393  INH393      0.2190
     25  N3        26.5940   12.9890   23.8310 N.4   393  INH393     -0.0660
     26  C25       25.3110   13.3940   24.4080 C.3   393  INH393      0.2650
     27  H29       26.5550   12.0390   23.4950 H     393  INH393      0.2770
     28  H28       27.3350   13.0760   24.5070 H     393  INH393      0.2770
     29  C24       24.4150   13.5490   23.1880 C.3   393  INH393      0.1560
     30  C26       25.3710   14.1420   22.1390 C.3   393  INH393      0.0700
     31  O4        23.9770   12.2280   22.8670 O.3   393  INH393     -0.3440
     32  C28       22.9060   11.6550   23.5750 C.ar  393  INH393      0.0690
     33  C33       21.8840   12.5620   23.9200 C.ar  393  INH393      0.0370
     34  C32       20.7460   12.1270   24.6340 C.ar  393  INH393      0.0030
     35  C31       20.6190   10.7700   25.0140 C.ar  393  INH393      0.0000
     36  C30       21.6370    9.8430   24.6760 C.ar  393  INH393      0.0030
     37  C29       22.7780   10.2750   23.9620 C.ar  393  INH393      0.0370
     38  O3        28.1190   12.0760   22.0160 O.3   393  INH393     -0.3910
     39  H21       28.3120   12.0020   22.9430 H     393  INH393      0.2100
     40  C17       27.1950   12.0550   19.6610 C.3   393  INH393      0.0660
     41  C18       25.7780   11.5430   19.7460 C.ar  393  INH393     -0.0500
     42  C23       24.6950   12.2520   19.1400 C.ar  393  INH393      0.0490
     43  C22       23.3820   11.7390   19.2460 C.ar  393  INH393      0.1190
     44  C21       23.0960   10.5370   19.9340 C.ar  393  INH393      0.0840
     45  F2        22.3790   12.4030   18.6820 F     393  INH393     -0.2060
     46  C20       24.1820    9.8570   20.5210 C.ar  393  INH393      0.1190
     47  C19       25.5080   10.3320   20.4390 C.ar  393  INH393      0.0490
     48  F1        23.9540    8.7210   21.1790 F     393  INH393     -0.2060
@<TRIPOS>BOND
     1    10     8    1
     2     8     9   ar
     3     8     7   ar
     4     9    11   ar
     5     7     6   ar
     6    19    17    1
     7    19    18    1
     8    17    15    1
     9    11    12   ar
    10    11    13    1
    11     6    12   ar
    12     6     3    1
    13    18    16    1
    14     4     3    2
    15    15    13   am
    16    15    16    1
    17    13    14    2
    18     3     2   am
    19    45    43    1
    20    16    20    1
    21    42    43   ar
    22    42    41   ar
    23    43    44   ar
    24     2     5    1
    25     2     1    1
    26    40    41    1
    27    40     1    1
    28    41    47   ar
    29    44    46   ar
    30     1    23    1
    31    20    21    1
    32    47    46   ar
    33    46    48    1
    34    21    22    1
    35    23    38    1
    36    23    24    1
    37    38    39    1
    38    30    24    1
    39    30    29    1
    40    24    25    1
    41    31    29    1
    42    31    32    1
    43    29    26    1
    44    27    25    1
    45    32    33   ar
    46    32    37   ar
    47    25    26    1
    48    25    28    1
    49    33    34   ar
    50    37    36   ar
    51    34    35   ar
    52    36    35   ar
