@<TRIPOS>MOLECULE
/tmp/ewbell/vina_2qmg_2qmg_lig/vina/vina2.pdbqt
 48 52 0 0 0
SMALL
GASTEIGER

@<TRIPOS>ATOM
      1  C15       23.8740   13.1280   24.1450 C.3   393  INH393      0.1190
      2  N2        24.5480   14.4190   24.4300 N.am  393  INH393     -0.3490
      3  C14       24.7450   14.9060   25.7040 C.2   393  INH393      0.2520
      4  O2        24.3670   14.2900   26.7030 O.2   393  INH393     -0.2680
      5  H16       24.8760   14.9630   23.6570 H     393  INH393      0.1630
      6  C4        25.4310   16.2070   25.7870 C.ar  393  INH393      0.0330
      7  C3        24.6850   17.4210   25.6830 C.ar  393  INH393      0.0240
      8  C2        25.3440   18.6850   25.7560 C.ar  393  INH393     -0.0600
      9  C1        26.7520   18.7280   25.9360 C.ar  393  INH393      0.0240
     10  C13       24.5620   19.9680   25.6440 C.3   393  INH393      0.0480
     11  C6        27.4980   17.5210   26.0390 C.ar  393  INH393      0.0330
     12  C5        26.8180   16.2760   25.9680 C.ar  393  INH393      0.0340
     13  C7        28.9680   17.5390   26.2390 C.2   393  INH393      0.2540
     14  O1        29.4410   17.3580   27.3590 O.2   393  INH393     -0.2670
     15  N1        29.8330   17.7470   25.1430 N.am  393  INH393     -0.3410
     16  C11       31.2920   17.7540   25.2910 C.3   393  INH393      0.1110
     17  C8        29.4890   17.9880   23.7290 C.3   393  INH393      0.1270
     18  C10       31.7770   18.6870   24.1650 C.3   393  INH393      0.0290
     19  C9        30.5190   19.0600   23.3590 C.3   393  INH393      0.0220
     20  C12       31.8600   16.3220   25.0910 C.3   393  INH393      0.1920
     21  O5        32.6590   16.2570   23.9150 O.3   393  INH393     -0.3940
     22  C34       32.3310   15.2170   23.0170 C.3   393  INH393      0.2010
     23  C16       24.3900   12.4780   22.8400 C.3   393  INH393      0.1710
     24  C27       23.3810   11.5340   22.1290 C.3   393  INH393      0.2190
     25  N3        23.8920   10.1600   22.0190 N.4   393  INH393     -0.0660
     26  C25       23.0550    9.5600   20.9780 C.3   393  INH393      0.2650
     27  H29       24.8630   10.1590   21.7470 H     393  INH393      0.2770
     28  H28       23.7870    9.6670   22.8920 H     393  INH393      0.2770
     29  C24       23.0550   10.6150   19.8820 C.3   393  INH393      0.1560
     30  C26       23.0250   11.9310   20.6780 C.3   393  INH393      0.0700
     31  O4        24.2750   10.4200   19.1650 O.3   393  INH393     -0.3440
     32  C28       25.1620   11.4960   18.9880 C.ar  393  INH393      0.0690
     33  C33       26.3950   11.3510   19.6540 C.ar  393  INH393      0.0370
     34  C32       27.3830   12.3550   19.5660 C.ar  393  INH393      0.0030
     35  C31       27.1460   13.5250   18.8060 C.ar  393  INH393      0.0000
     36  C30       25.9110   13.6900   18.1300 C.ar  393  INH393      0.0030
     37  C29       24.9180   12.6860   18.2160 C.ar  393  INH393      0.0370
     38  O3        24.7040   13.5120   21.9360 O.3   393  INH393     -0.3910
     39  H21       23.9500   14.0810   21.8310 H     393  INH393      0.2100
     40  C17       22.3510   13.3720   24.0570 C.3   393  INH393      0.0660
     41  C18       21.5140   12.5300   24.9880 C.ar  393  INH393     -0.0500
     42  C23       21.8120   12.4470   26.3840 C.ar  393  INH393      0.0490
     43  C22       21.0030   11.6420   27.2200 C.ar  393  INH393      0.1190
     44  C21       19.8990   10.9120   26.7240 C.ar  393  INH393      0.0840
     45  F2        21.2860   11.5680   28.5160 F     393  INH393     -0.2060
     46  C20       19.6280   11.0120   25.3440 C.ar  393  INH393      0.1190
     47  C19       20.4070   11.8020   24.4740 C.ar  393  INH393      0.0490
     48  F1        18.5960   10.3370   24.8390 F     393  INH393     -0.2060
@<TRIPOS>BOND
     1    36    37   ar
     2    36    35   ar
     3    37    32   ar
     4    35    34   ar
     5    32    31    1
     6    32    33   ar
     7    31    29    1
     8    34    33   ar
     9    29    30    1
    10    29    26    1
    11    30    24    1
    12    26    25    1
    13    27    25    1
    14    39    38    1
    15    38    23    1
    16    25    24    1
    17    25    28    1
    18    24    23    1
    19    23     1    1
    20    22    21    1
    21    19    17    1
    22    19    18    1
    23     5     2    1
    24    17    15    1
    25    21    20    1
    26    40     1    1
    27    40    41    1
    28     1     2    1
    29    18    16    1
    30     2     3   am
    31    47    41   ar
    32    47    46   ar
    33    48    46    1
    34    41    42   ar
    35    20    16    1
    36    15    16    1
    37    15    13   am
    38    46    44   ar
    39    10     8    1
    40     7     8   ar
    41     7     6   ar
    42     3     6    1
    43     3     4    2
    44     8     9   ar
    45     6    12   ar
    46     9    11   ar
    47    12    11   ar
    48    11    13    1
    49    13    14    2
    50    42    43   ar
    51    44    43   ar
    52    43    45    1
