@<TRIPOS>MOLECULE
/tmp/ewbell/vina_2qmg_2qmg_lig/vina/vina5.pdbqt
 48 52 0 0 0
SMALL
GASTEIGER

@<TRIPOS>ATOM
      1  C15       29.5420   13.6170   21.3550 C.3   393  INH393      0.1190
      2  N2        28.2710   14.0140   22.0120 N.am  393  INH393     -0.3490
      3  C14       28.0370   13.8620   23.3620 C.2   393  INH393      0.2520
      4  O2        28.8810   13.3790   24.1200 O.2   393  INH393     -0.2680
      5  H16       27.5490   14.4120   21.4460 H     393  INH393      0.1630
      6  C4        26.7150   14.3110   23.8310 C.ar  393  INH393      0.0330
      7  C3        26.5970   15.4910   24.6280 C.ar  393  INH393      0.0240
      8  C2        25.3200   15.9290   25.0900 C.ar  393  INH393     -0.0600
      9  C1        24.1620   15.1820   24.7490 C.ar  393  INH393      0.0240
     10  C13       25.1910   17.1710   25.9330 C.3   393  INH393      0.0480
     11  C6        24.2750   14.0070   23.9570 C.ar  393  INH393      0.0330
     12  C5        25.5560   13.5940   23.5050 C.ar  393  INH393      0.0340
     13  C7        23.0780   13.2150   23.5780 C.2   393  INH393      0.2540
     14  O1        22.6910   13.2030   22.4110 O.2   393  INH393     -0.2670
     15  N1        22.3880   12.4580   24.5490 N.am  393  INH393     -0.3410
     16  C11       21.2120   11.6470   24.2150 C.3   393  INH393      0.1110
     17  C8        22.6690   12.3320   25.9910 C.3   393  INH393      0.1270
     18  C10       20.3900   11.6280   25.5180 C.3   393  INH393      0.0290
     19  C9        21.2500   12.3580   26.5670 C.3   393  INH393      0.0220
     20  C12       21.6460   10.2070   23.8270 C.3   393  INH393      0.1920
     21  O5        22.9440   10.2110   23.2440 O.3   393  INH393     -0.3940
     22  C34       22.9880    9.9110   21.8640 C.3   393  INH393      0.2010
     23  C16       30.2290   14.8110   20.6520 C.3   393  INH393      0.1710
     24  C27       31.4150   15.4420   21.4340 C.3   393  INH393      0.2190
     25  N3        32.0210   14.4940   22.3790 N.4   393  INH393     -0.0660
     26  C25       32.7740   15.3530   23.2970 C.3   393  INH393      0.2650
     27  H29       31.3110   13.9750   22.8720 H     393  INH393      0.2770
     28  H28       32.6350   13.8540   21.9020 H     393  INH393      0.2770
     29  C24       31.7820   16.4560   23.6330 C.3   393  INH393      0.1560
     30  C26       31.0480   16.6700   22.2980 C.3   393  INH393      0.0700
     31  O4        30.9430   15.9150   24.6550 O.3   393  INH393     -0.3440
     32  C28       30.2010   16.7780   25.4810 C.ar  393  INH393      0.0690
     33  C33       29.4310   16.1250   26.4630 C.ar  393  INH393      0.0370
     34  C32       28.6340   16.8650   27.3630 C.ar  393  INH393      0.0030
     35  C31       28.5980   18.2770   27.2880 C.ar  393  INH393      0.0000
     36  C30       29.3660   18.9530   26.3060 C.ar  393  INH393      0.0030
     37  C29       30.1650   18.2150   25.4020 C.ar  393  INH393      0.0370
     38  O3        30.7350   14.3550   19.4190 O.3   393  INH393     -0.3910
     39  H21       31.1060   13.4880   19.5300 H     393  INH393      0.2100
     40  C17       29.2440   12.4930   20.3380 C.3   393  INH393      0.0660
     41  C18       27.8280   12.4630   19.8160 C.ar  393  INH393     -0.0500
     42  C23       27.0580   11.2580   19.8310 C.ar  393  INH393      0.0490
     43  C22       25.7360   11.2740   19.3290 C.ar  393  INH393      0.1190
     44  C21       25.1400   12.4460   18.8110 C.ar  393  INH393      0.0840
     45  F2        25.0250   10.1510   19.3440 F     393  INH393     -0.2060
     46  C20       25.9210   13.6200   18.8090 C.ar  393  INH393      0.1190
     47  C19       27.2430   13.6500   19.3000 C.ar  393  INH393      0.0490
     48  F1        25.3950   14.7440   18.3280 F     393  INH393     -0.2060
@<TRIPOS>BOND
     1    48    46    1
     2    46    44   ar
     3    46    47   ar
     4    44    43   ar
     5    47    41   ar
     6    43    45    1
     7    43    42   ar
     8    38    39    1
     9    38    23    1
    10    41    42   ar
    11    41    40    1
    12    40     1    1
    13    23     1    1
    14    23    24    1
    15     1     2    1
    16    24    30    1
    17    24    25    1
    18     5     2    1
    19    22    21    1
    20    28    25    1
    21     2     3   am
    22    30    29    1
    23    25    27    1
    24    25    26    1
    25    14    13    2
    26    21    20    1
    27    26    29    1
    28     3     6    1
    29     3     4    2
    30    12     6   ar
    31    12    11   ar
    32    13    11    1
    33    13    15   am
    34    29    31    1
    35    20    16    1
    36     6     7   ar
    37    11     9   ar
    38    16    15    1
    39    16    18    1
    40    15    17    1
    41     7     8   ar
    42    31    32    1
    43     9     8   ar
    44     8    10    1
    45    37    32   ar
    46    37    36   ar
    47    32    33   ar
    48    18    19    1
    49    17    19    1
    50    36    35   ar
    51    33    34   ar
    52    35    34   ar
