@<TRIPOS>MOLECULE
/tmp/ewbell/vina_2qmg_2qmg_lig/vina/vina1.pdbqt
 48 52 0 0 0
SMALL
GASTEIGER

@<TRIPOS>ATOM
      1  C15       26.9450   14.5070   24.5410 C.3   393  INH393      0.1190
      2  N2        25.9410   13.5020   24.1100 N.am  393  INH393     -0.3490
      3  C14       25.1770   13.6350   22.9690 C.2   393  INH393      0.2520
      4  O2        25.2830   14.6110   22.2240 O.2   393  INH393     -0.2680
      5  H16       25.8130   12.6880   24.6770 H     393  INH393      0.1630
      6  C4        24.2320   12.5360   22.7080 C.ar  393  INH393      0.0330
      7  C3        24.0620   12.0340   21.3820 C.ar  393  INH393      0.0240
      8  C2        23.1440   10.9730   21.1200 C.ar  393  INH393     -0.0600
      9  C1        22.3980   10.4160   22.1930 C.ar  393  INH393      0.0240
     10  C13       22.9590   10.4420   19.7220 C.3   393  INH393      0.0480
     11  C6        22.5640   10.9140   23.5150 C.ar  393  INH393      0.0330
     12  C5        23.4870   11.9670   23.7500 C.ar  393  INH393      0.0340
     13  C7        21.8050   10.3420   24.6540 C.2   393  INH393      0.2540
     14  O1        22.1660    9.2850   25.1680 O.2   393  INH393     -0.2670
     15  N1        20.6750   11.0150   25.1680 N.am  393  INH393     -0.3410
     16  C11       19.9070   10.4960   26.3040 C.3   393  INH393      0.1110
     17  C8        20.0670   12.2780   24.7090 C.3   393  INH393      0.1270
     18  C10       18.4810   11.0290   26.0650 C.3   393  INH393      0.0290
     19  C9        18.5770   11.9420   24.8290 C.3   393  INH393      0.0220
     20  C12       20.4770   11.0520   27.6370 C.3   393  INH393      0.1920
     21  O5        21.7430   11.6670   27.4260 O.3   393  INH393     -0.3940
     22  C34       21.9130   12.9270   28.0410 C.3   393  INH393      0.2010
     23  C16       28.3500   13.8850   24.7170 C.3   393  INH393      0.1710
     24  C27       29.3090   14.0670   23.5070 C.3   393  INH393      0.2190
     25  N3        29.1670   15.3910   22.8840 N.4   393  INH393     -0.0660
     26  C25       29.7790   15.2200   21.5640 C.3   393  INH393      0.2650
     27  H29       28.1960   15.6470   22.8020 H     393  INH393      0.2770
     28  H28       29.6550   16.0920   23.4170 H     393  INH393      0.2770
     29  C24       29.1720   13.9170   21.0660 C.3   393  INH393      0.1560
     30  C26       29.0940   13.0680   22.3470 C.3   393  INH393      0.0700
     31  O4        27.8880   14.2680   20.5470 O.3   393  INH393     -0.3440
     32  C28       27.1880   13.3570   19.7360 C.ar  393  INH393      0.0690
     33  C33       26.1850   13.9410   18.9360 C.ar  393  INH393      0.0370
     34  C32       25.4010   13.1470   18.0730 C.ar  393  INH393      0.0030
     35  C31       25.6120   11.7490   18.0010 C.ar  393  INH393      0.0000
     36  C30       26.6150   11.1440   18.7990 C.ar  393  INH393      0.0030
     37  C29       27.4020   11.9360   19.6650 C.ar  393  INH393      0.0370
     38  O3        28.9590   14.4970   25.8300 O.3   393  INH393     -0.3910
     39  H21       29.4160   15.2810   25.5490 H     393  INH393      0.2100
     40  C17       26.4710   15.1470   25.8640 C.3   393  INH393      0.0660
     41  C18       26.2330   16.6350   25.8050 C.ar  393  INH393     -0.0500
     42  C23       27.2340   17.5640   26.2310 C.ar  393  INH393      0.0490
     43  C22       26.9680   18.9510   26.1610 C.ar  393  INH393      0.1190
     44  C21       25.7400   19.4600   25.6790 C.ar  393  INH393      0.0840
     45  F2        27.9000   19.8100   26.5590 F     393  INH393     -0.2060
     46  C20       24.7720   18.5230   25.2650 C.ar  393  INH393      0.1190
     47  C19       24.9940   17.1310   25.3160 C.ar  393  INH393      0.0490
     48  F1        23.6020   18.9630   24.8060 F     393  INH393     -0.2060
@<TRIPOS>BOND
     1    35    34   ar
     2    35    36   ar
     3    34    33   ar
     4    36    37   ar
     5    33    32   ar
     6    37    32   ar
     7    10     8    1
     8    32    31    1
     9    31    29    1
    10    29    26    1
    11    29    30    1
    12     8     7   ar
    13     8     9   ar
    14     7     6   ar
    15    26    25    1
    16     9    11   ar
    17     4     3    2
    18    30    24    1
    19     6     3    1
    20     6    12   ar
    21    27    25    1
    22    25    28    1
    23    25    24    1
    24     3     2   am
    25    24    23    1
    26    11    12   ar
    27    11    13    1
    28     2     1    1
    29     2     5    1
    30     1    23    1
    31     1    40    1
    32    13    15   am
    33    13    14    2
    34    17    19    1
    35    17    15    1
    36    23    38    1
    37    48    46    1
    38    19    18    1
    39    15    16    1
    40    46    47   ar
    41    46    44   ar
    42    47    41   ar
    43    39    38    1
    44    44    43   ar
    45    41    40    1
    46    41    42   ar
    47    18    16    1
    48    43    42   ar
    49    43    45    1
    50    16    20    1
    51    21    20    1
    52    21    22    1
