@<TRIPOS>MOLECULE
./ligand/1nc3_lig.pdb
 32 34 0 0 0
SMALL
GASTEIGER

@<TRIPOS>ATOM
      1  N1        52.3740   40.6340   19.8220 N.2   470  INH470     -0.2421
      2  C1        53.0720   40.6730   20.9860 C.2   470  INH470      0.1033
      3  N2        54.3790   40.3340   21.1230 N.pl3 470  INH470     -0.1997
      4  C2        55.0130   39.9130   19.8950 C.ar  470  INH470      0.1047
      5  C3        54.3400   39.8570   18.6580 C.ar  470  INH470      0.1051
      6  C4        52.9360   40.2410   18.6320 C.3   470  INH470      0.1983
      7  N3        52.2010   40.2190   17.5170 N.3   470  INH470     -0.2985
      8  N4        55.2300   39.4200   17.7150 N.ar  470  INH470     -0.2755
      9  N5        56.4730   39.1840   18.3130 N.ar  470  INH470     -0.1738
     10  C5        56.3660   39.4700   19.6300 C.ar  470  INH470      0.1173
     11  C6        57.5470   39.3160   20.6570 C.3   470  INH470      0.1327
     12  C7        57.4800   39.8800   22.1080 C.3   470  INH470      0.1152
     13  O1        58.3590   40.9120   22.4350 O.3   470  INH470     -0.3862
     14  C8        57.6840   38.6880   23.0240 C.3   470  INH470      0.1120
     15  O2        59.0470   38.8150   23.5100 O.3   470  INH470     -0.3865
     16  C9        57.4340   37.3850   22.2040 C.3   470  INH470      0.1109
     17  O3        57.7800   37.8870   20.8390 O.3   470  INH470     -0.3595
     18  C10       55.9500   36.8440   22.2000 C.3   470  INH470      0.0729
     19  O4        55.4460   36.3460   23.4370 O.3   470  INH470     -0.3924
     20  H1        52.5440   41.0000   21.8750 H     470  INH470      0.1015
     21  H2        52.6250   39.9240   16.6260 H     470  INH470      0.1209
     22  H3        51.2100   40.4970   17.5480 H     470  INH470      0.1209
     23  H4        55.0170   39.2850   16.7160 H     470  INH470      0.1887
     24  H5        58.4250   39.7780   20.1810 H     470  INH470      0.0690
     25  H6        56.4650   40.2750   22.2620 H     470  INH470      0.0650
     26  H7        58.2230   41.1690   23.3400 H     470  INH470      0.2100
     27  H8        56.9820   38.7210   23.8710 H     470  INH470      0.0647
     28  H9        59.1350   39.6240   23.9990 H     470  INH470      0.2100
     29  H10       58.1060   36.5800   22.5350 H     470  INH470      0.0646
     30  H11       55.8950   36.0280   21.4650 H     470  INH470      0.0584
     31  H12       55.2960   37.6690   21.8820 H     470  INH470      0.0584
     32  H13       54.5510   36.0490   23.3180 H     470  INH470      0.2095
@<TRIPOS>BOND
     1     1     6    1
     2     1     2    2
     3     2    20    1
     4     2     3    1
     5     3     4    1
     6     4    10   ar
     7     4     5   ar
     8     5     8   ar
     9     5     6    1
    10     6     7    1
    11     7    22    1
    12     7    21    1
    13     8    23    1
    14     8     9   ar
    15     9    10   ar
    16    10    11    1
    17    11    24    1
    18    11    17    1
    19    11    12    1
    20    12    25    1
    21    12    14    1
    22    12    13    1
    23    13    26    1
    24    14    27    1
    25    14    16    1
    26    14    15    1
    27    15    28    1
    28    16    29    1
    29    16    18    1
    30    16    17    1
    31    18    31    1
    32    18    30    1
    33    18    19    1
    34    19    32    1
