@<TRIPOS>MOLECULE
/tmp/ewbell/vina_1nc3_1nc3_lig/vina/vina2.pdbqt
 28 30 0 0 0
SMALL
GASTEIGER

@<TRIPOS>ATOM
      1  N1        45.9270   43.9550   26.3170 N.pl3 470  INH470     -0.3520
      2  H1        46.3320   44.6800   26.9080 H     470  INH470      0.1620
      3  C1        45.9840   44.1090   24.9690 C.3   470  INH470      0.1780
      4  N2        45.4920   43.2270   24.0620 N.pl3 470  INH470     -0.3490
      5  C2        44.8710   42.0610   24.6470 C.ar  470  INH470      0.0880
      6  C3        44.7800   41.8510   26.0380 C.ar  470  INH470      0.1060
      7  C4        45.3470   42.8640   26.9160 C.2   470  INH470      0.6860
      8  N4        44.1400   40.6580   26.2410 N.ar  470  INH470     -0.2980
      9  N5        43.8150   40.0820   25.0080 N.ar  470  INH470     -0.2990
     10  H5        43.3330   39.1930   24.8710 H     470  INH470      0.1860
     11  C5        44.2500   40.9070   24.0310 C.ar  470  INH470      0.0860
     12  H4        43.9300   40.2480   27.1620 H     470  INH470      0.1860
     13  H         45.5530   43.3700   23.0890 H     470  INH470      0.1660
     14  C6        44.0900   40.6060   22.4950 C.3   470  INH470      0.2070
     15  O3        42.6720   40.7250   22.1750 O.3   470  INH470     -0.3670
     16  C9        42.0240   39.4310   21.8000 C.3   470  INH470      0.1770
     17  C8        43.2620   38.6910   21.2060 C.3   470  INH470      0.1800
     18  C7        44.5140   39.2500   21.8550 C.3   470  INH470      0.1840
     19  C10       41.3790   38.7780   23.0850 C.3   470  INH470      0.1980
     20  O4        42.1840   37.8470   23.8040 O.3   470  INH470     -0.3980
     21  H13       43.0580   37.8300   23.4320 H     470  INH470      0.2090
     22  O2        43.4440   38.9140   19.7820 O.3   470  INH470     -0.3900
     23  H9        44.1620   38.3800   19.4670 H     470  INH470      0.2100
     24  O1        45.5740   39.2730   20.9490 O.3   470  INH470     -0.3900
     25  H7        46.2190   38.6220   21.1990 H     470  INH470      0.2100
     26  N3        45.3220   42.7630   28.2470 N.pl3 470  INH470     -0.0950
     27  H3        44.8380   43.4780   28.8090 H     470  INH470      0.2600
     28  H2        45.7870   41.9710   28.7130 H     470  INH470      0.2600
@<TRIPOS>BOND
     1    23    22    1
     2    22    17    1
     3    24    25    1
     4    24    18    1
     5    17    16    1
     6    17    18    1
     7    16    15    1
     8    16    19    1
     9    18    14    1
    10    15    14    1
    11    14    11    1
    12    19    20    1
    13    13     4    1
    14    21    20    1
    15    11     5   ar
    16    11     9   ar
    17     4     5    1
    18     4     3    1
    19     5     6   ar
    20    10     9    1
    21     3     1    1
    22     9     8   ar
    23     6     8   ar
    24     6     7    2
    25     8    12    1
    26     1     2    1
    27     1     7    1
    28     7    26    1
    29    26    28    1
    30    26    27    1
