@<TRIPOS>MOLECULE
/tmp/ewbell/vina_1nc3_1nc3_lig/vina/vina3.pdbqt
 28 30 0 0 0
SMALL
GASTEIGER

@<TRIPOS>ATOM
      1  N1        41.6180   47.2930   31.6820 N.pl3 470  INH470     -0.3520
      2  H1        40.9790   47.8550   32.2440 H     470  INH470      0.1620
      3  C1        42.3500   47.9100   30.7190 C.3   470  INH470      0.1780
      4  N2        43.2400   47.2930   29.9010 N.pl3 470  INH470     -0.3490
      5  C2        43.3630   45.8710   30.1260 C.ar  470  INH470      0.0880
      6  C3        42.6270   45.1780   31.1080 C.ar  470  INH470      0.1060
      7  C4        41.7030   45.9450   31.9300 C.2   470  INH470      0.6860
      8  N4        42.9870   43.8590   31.0490 N.ar  470  INH470     -0.2980
      9  N5        43.9500   43.6770   30.0500 N.ar  470  INH470     -0.2990
     10  H5        44.3880   42.7920   29.7950 H     470  INH470      0.1860
     11  C5        44.1970   44.8780   29.4820 C.ar  470  INH470      0.0860
     12  H4        42.6070   43.1130   31.6500 H     470  INH470      0.1860
     13  H         43.7560   47.7730   29.2130 H     470  INH470      0.1660
     14  C6        45.2380   45.1000   28.3240 C.3   470  INH470      0.2070
     15  O3        44.5360   45.7660   27.2310 O.3   470  INH470     -0.3670
     16  C9        44.3810   44.9230   26.0060 C.3   470  INH470      0.1770
     17  C8        45.6440   44.0200   26.1590 C.3   470  INH470      0.1800
     18  C7        45.9920   43.9250   27.6330 C.3   470  INH470      0.1840
     19  C10       42.9890   44.1800   26.0570 C.3   470  INH470      0.1980
     20  O4        41.9260   44.8540   26.7280 O.3   470  INH470     -0.3980
     21  H13       41.0980   44.4540   26.4900 H     470  INH470      0.2090
     22  O2        46.8300   44.5700   25.5270 O.3   470  INH470     -0.3900
     23  H9        47.4980   43.8980   25.4680 H     470  INH470      0.2100
     24  O1        47.3730   43.8570   27.8120 O.3   470  INH470     -0.3900
     25  H7        47.5700   43.2740   28.5360 H     470  INH470      0.2100
     26  N3        40.9610   45.3910   32.8930 N.pl3 470  INH470     -0.0950
     27  H3        40.1960   45.9270   33.3260 H     470  INH470      0.2600
     28  H2        41.1540   44.4280   33.2030 H     470  INH470      0.2600
@<TRIPOS>BOND
     1    23    22    1
     2    22    17    1
     3    16    19    1
     4    16    17    1
     5    16    15    1
     6    19    20    1
     7    17    18    1
     8    21    20    1
     9    15    14    1
    10    18    24    1
    11    18    14    1
    12    24    25    1
    13    14    11    1
    14    13     4    1
    15    11     9   ar
    16    11     5   ar
    17    10     9    1
    18     4     5    1
    19     4     3    1
    20     9     8   ar
    21     5     6   ar
    22     3     1    1
    23     8     6   ar
    24     8    12    1
    25     6     7    2
    26     1     7    1
    27     1     2    1
    28     7    26    1
    29    26    28    1
    30    26    27    1
