@<TRIPOS>MOLECULE
/tmp/ewbell/vina_1nc3_1nc3_lig/vina/vina1.pdbqt
 28 30 0 0 0
SMALL
GASTEIGER

@<TRIPOS>ATOM
      1  N1        52.4240   41.0410   19.8180 N.pl3 470  INH470     -0.3520
      2  H1        51.4760   41.4160   19.8350 H     470  INH470      0.1620
      3  C1        53.1640   41.0910   20.9560 C.3   470  INH470      0.1780
      4  N2        54.4340   40.6280   21.0810 N.pl3 470  INH470     -0.3490
      5  C2        54.9770   40.0550   19.8710 C.ar  470  INH470      0.0880
      6  C3        54.2570   39.9800   18.6610 C.ar  470  INH470      0.1060
      7  C4        52.9000   40.5060   18.6460 C.2   470  INH470      0.6860
      8  N4        55.0630   39.3850   17.7290 N.ar  470  INH470     -0.2980
      9  N5        56.2960   39.0650   18.3080 N.ar  470  INH470     -0.2990
     10  H5        57.0810   38.6150   17.8360 H     470  INH470      0.1860
     11  C5        56.2670   39.4550   19.6020 C.ar  470  INH470      0.0860
     12  H4        54.8020   39.2010   16.7500 H     470  INH470      0.1860
     13  H         54.9410   40.6790   21.9240 H     470  INH470      0.1660
     14  C6        57.4620   39.2530   20.6040 C.3   470  INH470      0.2070
     15  O3        57.7070   37.8180   20.7040 O.3   470  INH470     -0.3670
     16  C9        57.3820   37.2390   22.0430 C.3   470  INH470      0.1770
     17  C8        57.6340   38.4960   22.9310 C.3   470  INH470      0.1800
     18  C7        57.4100   39.7360   22.0850 C.3   470  INH470      0.1840
     19  C10       55.9020   36.6880   22.0280 C.3   470  INH470      0.1980
     20  O4        55.4800   35.9520   23.1740 O.3   470  INH470     -0.3980
     21  H13       54.7740   35.3640   22.9310 H     470  INH470      0.2090
     22  O2        59.0030   38.6060   23.4060 O.3   470  INH470     -0.3900
     23  H9        59.0370   39.2100   24.1370 H     470  INH470      0.2100
     24  O1        58.2870   40.7540   22.4570 O.3   470  INH470     -0.3900
     25  H7        58.6650   41.1470   21.6790 H     470  INH470      0.2100
     26  N3        52.1270   40.4800   17.5570 N.pl3 470  INH470     -0.0950
     27  H3        51.1500   40.1610   17.6270 H     470  INH470      0.2600
     28  H2        52.5070   40.7800   16.6480 H     470  INH470      0.2600
@<TRIPOS>BOND
     1    28    26    1
     2    12     8    1
     3    26    27    1
     4    26     7    1
     5     8     9   ar
     6     8     6   ar
     7    10     9    1
     8     9    11   ar
     9     7     6    2
    10     7     1    1
    11     6     5   ar
    12    11     5   ar
    13    11    14    1
    14     1     2    1
    15     1     3    1
    16     5     4    1
    17    14    15    1
    18    14    18    1
    19    15    16    1
    20     3     4    1
    21     4    13    1
    22    25    24    1
    23    19    16    1
    24    19    20    1
    25    16    17    1
    26    18    24    1
    27    18    17    1
    28    17    22    1
    29    21    20    1
    30    22    23    1
