@<TRIPOS>MOLECULE
/tmp/ewbell/vina_1nc3_1nc3_lig/vina/vina4.pdbqt
 28 30 0 0 0
SMALL
GASTEIGER

@<TRIPOS>ATOM
      1  N1        44.1110   42.2410   25.0400 N.pl3 470  INH470     -0.3520
      2  H1        44.0630   43.0350   25.6780 H     470  INH470      0.1620
      3  C1        43.2160   41.2310   25.1890 C.3   470  INH470      0.1780
      4  N2        43.1600   40.1180   24.4130 N.pl3 470  INH470     -0.3490
      5  C2        44.1610   40.0710   23.3730 C.ar  470  INH470      0.0880
      6  C3        45.1170   41.0880   23.1740 C.ar  470  INH470      0.1060
      7  C4        45.0790   42.2380   24.0650 C.2   470  INH470      0.6860
      8  N4        45.9010   40.7250   22.1130 N.ar  470  INH470     -0.2980
      9  N5        45.4730   39.4910   21.6100 N.ar  470  INH470     -0.2990
     10  H5        45.8840   38.9910   20.8220 H     470  INH470      0.1860
     11  C5        44.4200   39.0780   22.3510 C.ar  470  INH470      0.0860
     12  H4        46.6870   41.2770   21.7400 H     470  INH470      0.1860
     13  H         42.4940   39.4050   24.5490 H     470  INH470      0.1660
     14  C6        43.6400   37.7380   22.0910 C.3   470  INH470      0.2070
     15  O3        44.1370   36.7540   23.0480 O.3   470  INH470     -0.3670
     16  C9        44.9010   35.6320   22.4230 C.3   470  INH470      0.1770
     17  C8        44.2130   35.6050   21.0240 C.3   470  INH470      0.1800
     18  C7        43.6780   36.9930   20.7230 C.3   470  INH470      0.1840
     19  C10       46.4420   35.9830   22.4290 C.3   470  INH470      0.1980
     20  O4        47.1870   35.5760   23.5750 O.3   470  INH470     -0.3980
     21  H13       48.1160   35.6380   23.3860 H     470  INH470      0.2090
     22  O2        43.0520   34.7330   20.9650 O.3   470  INH470     -0.3900
     23  H9        42.5480   34.8230   21.7640 H     470  INH470      0.2100
     24  O1        42.4880   36.9190   20.0010 O.3   470  INH470     -0.3900
     25  H7        41.9430   37.6690   20.2120 H     470  INH470      0.2100
     26  N3        45.9320   43.2600   23.9630 N.pl3 470  INH470     -0.0950
     27  H3        46.1010   43.8730   24.7730 H     470  INH470      0.2600
     28  H2        46.4220   43.4360   23.0740 H     470  INH470      0.2600
@<TRIPOS>BOND
     1    24    25    1
     2    24    18    1
     3    18    17    1
     4    18    14    1
     5    10     9    1
     6    22    17    1
     7    22    23    1
     8    17    16    1
     9     9     8   ar
    10     9    11   ar
    11    12     8    1
    12    14    11    1
    13    14    15    1
    14     8     6   ar
    15    11     5   ar
    16    16    19    1
    17    16    15    1
    18    19    20    1
    19    28    26    1
    20     6     5   ar
    21     6     7    2
    22     5     4    1
    23    21    20    1
    24    26     7    1
    25    26    27    1
    26     7     1    1
    27     4    13    1
    28     4     3    1
    29     1     3    1
    30     1     2    1
