@<TRIPOS>MOLECULE
/tmp/ewbell/vina_1nc3_1nc3_lig/vina/vina5.pdbqt
 28 30 0 0 0
SMALL
GASTEIGER

@<TRIPOS>ATOM
      1  N1        44.8360   42.4430   24.1620 N.pl3 470  INH470     -0.3520
      2  H1        44.7460   42.0460   23.2270 H     470  INH470      0.1620
      3  C1        45.0500   43.7790   24.2830 C.3   470  INH470      0.1780
      4  N2        45.1850   44.4430   25.4590 N.pl3 470  INH470     -0.3490
      5  C2        45.0870   43.6020   26.6290 C.ar  470  INH470      0.0880
      6  C3        44.8700   42.2100   26.5640 C.ar  470  INH470      0.1060
      7  C4        44.7370   41.6060   25.2460 C.2   470  INH470      0.6860
      8  N4        44.8310   41.7310   27.8450 N.ar  470  INH470     -0.2980
      9  N5        45.0120   42.7840   28.7480 N.ar  470  INH470     -0.2990
     10  H5        45.0270   42.7050   29.7650 H     470  INH470      0.1860
     11  C5        45.1640   43.9240   28.0380 C.ar  470  INH470      0.0860
     12  H4        44.6890   40.7440   28.1040 H     470  INH470      0.1860
     13  H         45.3360   45.4150   25.5100 H     470  INH470      0.1660
     14  C6        45.3750   45.3390   28.6920 C.3   470  INH470      0.2070
     15  O3        45.2660   45.1710   30.1370 O.3   470  INH470     -0.3670
     16  C9        44.0650   45.8300   30.7360 C.3   470  INH470      0.1770
     17  C8        43.8780   46.9920   29.7130 C.3   470  INH470      0.1800
     18  C7        44.4550   46.5570   28.3790 C.3   470  INH470      0.1840
     19  C10       42.8840   44.7850   30.8190 C.3   470  INH470      0.1980
     20  O4        43.2160   43.4770   31.2800 O.3   470  INH470     -0.3980
     21  H13       43.9020   43.5370   31.9360 H     470  INH470      0.2090
     22  O2        44.6090   48.1980   30.0640 O.3   470  INH470     -0.3900
     23  H9        44.0200   48.8150   30.4800 H     470  INH470      0.2100
     24  O1        45.0290   47.6380   27.7110 O.3   470  INH470     -0.3900
     25  H7        45.5640   47.3190   26.9930 H     470  INH470      0.2100
     26  N3        44.5230   40.3000   25.0680 N.pl3 470  INH470     -0.0950
     27  H3        43.8470   39.8020   25.6650 H     470  INH470      0.2600
     28  H2        45.0350   39.7890   24.3340 H     470  INH470      0.2600
@<TRIPOS>BOND
     1     2     1    1
     2     1     3    1
     3     1     7    1
     4     3     4    1
     5    28    26    1
     6    26     7    1
     7    26    27    1
     8     7     6    2
     9     4    13    1
    10     4     5    1
    11     6     5   ar
    12     6     8   ar
    13     5    11   ar
    14    25    24    1
    15    24    18    1
    16     8    12    1
    17     8     9   ar
    18    11    14    1
    19    11     9   ar
    20    18    14    1
    21    18    17    1
    22    14    15    1
    23     9    10    1
    24    17    22    1
    25    17    16    1
    26    22    23    1
    27    15    16    1
    28    16    19    1
    29    19    20    1
    30    20    21    1
