@<TRIPOS>MOLECULE
./ligand/1uwu_lig.pdb
 26 26 0 0 0
SMALL
GASTEIGER

@<TRIPOS>ATOM
      1  C1        74.5520   21.0060   89.4610 C.3   1961  INH1961     0.1582
      2  N1        75.0040   21.1720   90.6950 N.4   1961  INH1961    -0.1780
      3  C2        73.8000   22.2220   88.8780 C.3   1961  INH1961     0.1199
      4  N2        74.7720   19.7820   88.7940 N.3   1961  INH1961    -0.2849
      5  O1        75.8450   20.1790   91.2060 O.3   1961  INH1961    -0.3131
      6  O2        72.7420   22.5540   89.7360 O.3   1961  INH1961    -0.3858
      7  C3        73.2510   21.9150   87.4810 C.3   1961  INH1961     0.1115
      8  O3        72.9960   23.2170   86.9110 O.3   1961  INH1961    -0.3865
      9  C4        74.2960   21.0370   86.7040 C.3   1961  INH1961     0.1010
     10  O4        73.9330   20.9240   85.3500 O.3   1961  INH1961    -0.3875
     11  C5        74.3700   19.6410   87.3900 C.3   1961  INH1961     0.0610
     12  C6        75.3780   18.6410   86.7940 C.3   1961  INH1961     0.0621
     13  O5        76.6830   19.1360   86.9310 O.3   1961  INH1961    -0.3934
     14  H1        74.7470   21.9980   91.2540 H     1961  INH1961     0.1559
     15  H2        74.4940   23.0730   88.8090 H     1961  INH1961     0.0654
     16  H3        75.2120   18.9930   89.2890 H     1961  INH1961     0.1243
     17  H4        76.1020   20.4070   92.0920 H     1961  INH1961     0.2363
     18  H5        72.2730   23.3020   89.3850 H     1961  INH1961     0.2100
     19  H6        72.3070   21.3550   87.5490 H     1961  INH1961     0.0647
     20  H7        72.6490   23.1160   86.0330 H     1961  INH1961     0.2100
     21  H8        75.2840   21.5170   86.7620 H     1961  INH1961     0.0636
     22  H9        74.5740   20.3910   84.8940 H     1961  INH1961     0.2100
     23  H10       73.3660   19.1960   87.3360 H     1961  INH1961     0.0510
     24  H11       75.1550   18.4910   85.7270 H     1961  INH1961     0.0573
     25  H12       75.2950   17.6810   87.3240 H     1961  INH1961     0.0573
     26  H13       77.2980   18.5140   86.5610 H     1961  INH1961     0.2095
@<TRIPOS>BOND
     1    22    10    1
     2    10     9    1
     3    24    12    1
     4    20     8    1
     5    26    13    1
     6     9    21    1
     7     9    11    1
     8     9     7    1
     9    12    13    1
    10    12    25    1
    11    12    11    1
    12     8     7    1
    13    23    11    1
    14    11     4    1
    15     7    19    1
    16     7     3    1
    17     4    16    1
    18     4     1    1
    19    15     3    1
    20     3     1    1
    21     3     6    1
    22    18     6    1
    23     1     2    1
    24     2     5    1
    25     2    14    1
    26     5    17    1
