@<TRIPOS>MOLECULE
/tmp/ewbell/vina_1uwu_1uwu_lig/vina/vina5.pdbqt
 20 20 0 0 0
SMALL
GASTEIGER

@<TRIPOS>ATOM
      1  C1        75.5710   21.2260   88.1250 C.3   1961  INH1961     0.6910
      2  N1        74.4880   21.1010   87.3720 N.4   1961  INH1961    -0.2700
      3  C2        75.4720   20.5640   89.5170 C.3   1961  INH1961     0.2030
      4  N2        76.6900   21.9280   87.6300 N.3   1961  INH1961    -0.0850
      5  C3        76.7370   20.8210   90.3420 C.3   1961  INH1961     0.1810
      6  C4        77.9870   20.7550   89.3940 C.3   1961  INH1961     0.1810
      7  C5        77.9270   21.9680   88.4190 C.3   1961  INH1961     0.2280
      8  H1        73.6130   20.7130   87.7520 H     1961  INH1961     0.1900
      9  H3        76.6400   22.4100   86.7200 H     1961  INH1961     0.2630
     10  O2        74.3580   21.0880   90.1880 O.3   1961  INH1961    -0.3890
     11  H5        74.5030   21.0410   91.1260 H     1961  INH1961     0.2100
     12  O1        74.5840   21.5200   86.0420 O.3   1961  INH1961    -0.2920
     13  H4        74.6230   20.7600   85.4730 H     1961  INH1961     0.2440
     14  C6        79.0540   22.0590   87.3740 C.3   1961  INH1961     0.1980
     15  O5        79.5570   20.7790   87.0980 O.3   1961  INH1961    -0.3990
     16  H13       79.2280   20.4840   86.2580 H     1961  INH1961     0.2090
     17  O3        76.6930   19.8110   91.3730 O.3   1961  INH1961    -0.3900
     18  H7        77.1880   19.0510   91.0940 H     1961  INH1961     0.2100
     19  O4        79.1750   20.7610   90.1460 O.3   1961  INH1961    -0.3910
     20  H9        79.7160   20.0240   89.8890 H     1961  INH1961     0.2100
@<TRIPOS>BOND
     1    13    12    1
     2    12     2    1
     3    16    15    1
     4     9     4    1
     5    15    14    1
     6     2     8    1
     7     2     1    1
     8    14     7    1
     9     4     1    1
    10     4     7    1
    11     1     3    1
    12     7     6    1
    13     6    19    1
    14     6     5    1
    15     3    10    1
    16     3     5    1
    17    20    19    1
    18    10    11    1
    19     5    17    1
    20    18    17    1
