@<TRIPOS>MOLECULE
/tmp/ewbell/vina_1uwu_1uwu_lig/vina/vina2.pdbqt
 20 20 0 0 0
SMALL
GASTEIGER

@<TRIPOS>ATOM
      1  C1        75.0820   21.5020   89.3850 C.3   1961  INH1961     0.6910
      2  N1        73.9810   22.2210   89.2260 N.4   1961  INH1961    -0.2700
      3  C2        76.0700   21.5610   88.2010 C.3   1961  INH1961     0.2030
      4  N2        75.2660   20.7580   90.5700 N.3   1961  INH1961    -0.0850
      5  C3        77.2750   20.6450   88.4390 C.3   1961  INH1961     0.1810
      6  C4        77.6730   20.7110   89.9570 C.3   1961  INH1961     0.1810
      7  C5        76.5340   20.0540   90.7920 C.3   1961  INH1961     0.2280
      8  H1        73.7560   22.6660   88.3250 H     1961  INH1961     0.1900
      9  H3        74.5170   20.7100   91.2750 H     1961  INH1961     0.2630
     10  O2        75.4030   21.1650   87.0330 O.3   1961  INH1961    -0.3890
     11  H5        75.7980   21.5920   86.2820 H     1961  INH1961     0.2100
     12  O1        73.1370   22.3510   90.3330 O.3   1961  INH1961    -0.2920
     13  H4        72.8120   23.2430   90.3810 H     1961  INH1961     0.2440
     14  C6        76.7200   20.0570   92.3200 C.3   1961  INH1961     0.1980
     15  O5        77.4380   21.1960   92.7140 O.3   1961  INH1961    -0.3990
     16  H13       78.0590   21.4300   92.0340 H     1961  INH1961     0.2090
     17  O3        78.2750   21.1340   87.5190 O.3   1961  INH1961    -0.3900
     18  H7        78.0690   20.8370   86.6410 H     1961  INH1961     0.2100
     19  O4        78.9040   20.0650   90.1710 O.3   1961  INH1961    -0.3910
     20  H9        79.3220   20.4290   90.9430 H     1961  INH1961     0.2100
@<TRIPOS>BOND
     1    11    10    1
     2    18    17    1
     3    10     3    1
     4    17     5    1
     5     3     5    1
     6     3     1    1
     7     8     2    1
     8     5     6    1
     9     2     1    1
    10     2    12    1
    11     1     4    1
    12     6    19    1
    13     6     7    1
    14    19    20    1
    15    12    13    1
    16     4     7    1
    17     4     9    1
    18     7    14    1
    19    16    15    1
    20    14    15    1
