@<TRIPOS>MOLECULE
/tmp/ewbell/vina_1uwu_1uwu_lig/vina/vina3.pdbqt
 20 20 0 0 0
SMALL
GASTEIGER

@<TRIPOS>ATOM
      1  C1        78.1830   20.5570   88.7870 C.3   1961  INH1961     0.6910
      2  N1        79.3570   20.8300   88.2370 N.4   1961  INH1961    -0.2700
      3  C2        78.1500   20.6620   90.3270 C.3   1961  INH1961     0.2030
      4  N2        77.0920   20.1970   87.9670 N.3   1961  INH1961    -0.0850
      5  C3        76.7790   20.2590   90.8800 C.3   1961  INH1961     0.1810
      6  C4        75.6630   20.7880   89.9100 C.3   1961  INH1961     0.1810
      7  C5        75.7680   20.0060   88.5680 C.3   1961  INH1961     0.2280
      8  H1        80.2000   20.9650   88.8120 H     1961  INH1961     0.1900
      9  H3        77.2250   20.0710   86.9530 H     1961  INH1961     0.2630
     10  O2        79.1370   19.8210   90.8600 O.3   1961  INH1961    -0.3890
     11  H5        79.4620   20.1900   91.6730 H     1961  INH1961     0.2100
     12  O1        79.4010   20.9280   86.8430 O.3   1961  INH1961    -0.2920
     13  H4        80.0260   21.5980   86.5930 H     1961  INH1961     0.2440
     14  C6        74.7750   20.4110   87.4630 C.3   1961  INH1961     0.1980
     15  O5        73.5600   19.7330   87.6360 O.3   1961  INH1961    -0.3990
     16  H13       72.9840   20.2510   88.1840 H     1961  INH1961     0.2090
     17  O3        76.7580   20.8220   92.2090 O.3   1961  INH1961    -0.3900
     18  H7        76.7100   20.1230   92.8490 H     1961  INH1961     0.2100
     19  O4        74.3920   20.6360   90.4940 O.3   1961  INH1961    -0.3910
     20  H9        74.3010   21.2460   91.2160 H     1961  INH1961     0.2100
@<TRIPOS>BOND
     1    13    12    1
     2    12     2    1
     3     9     4    1
     4    14    15    1
     5    14     7    1
     6    15    16    1
     7     4     7    1
     8     4     1    1
     9     2     1    1
    10     2     8    1
    11     7     6    1
    12     1     3    1
    13     6    19    1
    14     6     5    1
    15     3    10    1
    16     3     5    1
    17    19    20    1
    18    10    11    1
    19     5    17    1
    20    17    18    1
