@<TRIPOS>MOLECULE
/tmp/ewbell/vina_1uwu_1uwu_lig/vina/vina1.pdbqt
 20 20 0 0 0
SMALL
GASTEIGER

@<TRIPOS>ATOM
      1  C1        74.7000   21.0450   89.5170 C.3   1961  INH1961     0.6910
      2  N1        75.2180   21.1910   90.7280 N.4   1961  INH1961    -0.2700
      3  C2        74.0440   22.3160   88.9360 C.3   1961  INH1961     0.2030
      4  N2        74.7730   19.7920   88.8720 N.3   1961  INH1961    -0.0850
      5  C3        73.4090   22.0360   87.5700 C.3   1961  INH1961     0.1810
      6  C4        74.3310   21.0450   86.7730 C.3   1961  INH1961     0.1810
      7  C5        74.3000   19.6630   87.4890 C.3   1961  INH1961     0.2280
      8  H1        75.0650   22.0490   91.2770 H     1961  INH1961     0.1900
      9  H3        75.1560   18.9750   89.3670 H     1961  INH1961     0.2630
     10  O2        73.0600   22.7660   89.8280 O.3   1961  INH1961    -0.3890
     11  H5        72.7060   22.0260   90.3080 H     1961  INH1961     0.2100
     12  O1        75.9810   20.1320   91.2280 O.3   1961  INH1961    -0.2920
     13  H4        76.4790   20.4290   91.9810 H     1961  INH1961     0.2440
     14  C6        75.1820   18.5580   86.8770 C.3   1961  INH1961     0.1980
     15  O5        76.5340   18.9160   86.9730 O.3   1961  INH1961    -0.3990
     16  H13       76.6250   19.6550   87.5620 H     1961  INH1961     0.2090
     17  O3        73.2560   23.3450   86.9800 O.3   1961  INH1961    -0.3900
     18  H7        73.7980   23.9690   87.4480 H     1961  INH1961     0.2100
     19  O4        73.9020   20.9410   85.4380 O.3   1961  INH1961    -0.3910
     20  H9        72.9800   20.7110   85.4190 H     1961  INH1961     0.2100
@<TRIPOS>BOND
     1    20    19    1
     2    19     6    1
     3     6     7    1
     4     6     5    1
     5    14    15    1
     6    14     7    1
     7    15    16    1
     8    17    18    1
     9    17     5    1
    10     7     4    1
    11     5     3    1
    12     4     9    1
    13     4     1    1
    14     3     1    1
    15     3    10    1
    16     1     2    1
    17    10    11    1
    18     2    12    1
    19     2     8    1
    20    12    13    1
