@<TRIPOS>MOLECULE
/tmp/ewbell/vina_1uwu_1uwu_lig/vina/vina4.pdbqt
 20 20 0 0 0
SMALL
GASTEIGER

@<TRIPOS>ATOM
      1  C1        77.0570   19.1040   93.8420 C.3   1961  INH1961     0.6910
      2  N1        75.8000   19.3230   94.1990 N.4   1961  INH1961    -0.2700
      3  C2        77.7490   20.2950   93.1450 C.3   1961  INH1961     0.2030
      4  N2        77.6500   17.8510   94.1040 N.3   1961  INH1961    -0.0850
      5  C3        79.1690   19.9280   92.7030 C.3   1961  INH1961     0.1810
      6  C4        79.8240   19.0130   93.7990 C.3   1961  INH1961     0.1810
      7  C5        79.0730   17.6490   93.8100 C.3   1961  INH1961     0.2280
      8  H1        75.2990   20.1730   93.9050 H     1961  INH1961     0.1900
      9  H3        77.0890   17.0830   94.4990 H     1961  INH1961     0.2630
     10  O2        76.9900   20.6680   92.0270 O.3   1961  INH1961    -0.3890
     11  H5        77.2860   21.5150   91.7120 H     1961  INH1961     0.2100
     12  O1        75.1820   18.3500   94.9910 O.3   1961  INH1961    -0.2920
     13  H4        75.8410   17.8890   95.4970 H     1961  INH1961     0.2440
     14  C6        79.5450   16.6200   94.8540 C.3   1961  INH1961     0.1980
     15  O5        78.4990   15.7400   95.1670 O.3   1961  INH1961    -0.3990
     16  H13       78.8590   14.9300   95.5090 H     1961  INH1961     0.2090
     17  O3        79.8140   21.2050   92.5010 O.3   1961  INH1961    -0.3900
     18  H7        79.2020   21.8090   92.0990 H     1961  INH1961     0.2100
     19  O4        81.1960   18.8420   93.5400 O.3   1961  INH1961    -0.3910
     20  H9        81.5460   19.6350   93.1510 H     1961  INH1961     0.2100
@<TRIPOS>BOND
     1    11    10    1
     2    10     3    1
     3    18    17    1
     4    17     5    1
     5     5     3    1
     6     5     6    1
     7     3     1    1
     8    20    19    1
     9    19     6    1
    10     6     7    1
    11     7     4    1
    12     7    14    1
    13     1     4    1
    14     1     2    1
    15     8     2    1
    16     4     9    1
    17     2    12    1
    18    14    15    1
    19    12    13    1
    20    15    16    1
