@<TRIPOS>MOLECULE
./ligand/1ax1_lig.pdb
 45 46 0 0 0
SMALL
GASTEIGER

@<TRIPOS>ATOM
      1  C1        22.2230   -1.4550   37.6430 C.3   487  INH487      0.1854
      2  C2        21.3570   -2.7070   37.7600 C.3   487  INH487      0.1339
      3  C3        20.1380   -2.5830   36.8560 C.3   487  INH487      0.1144
      4  C4        19.3890   -1.2770   37.1580 C.3   487  INH487      0.1184
      5  C5        20.3620   -0.0970   37.0920 C.3   487  INH487      0.1134
      6  C6        19.7300    1.2320   37.4530 C.3   487  INH487      0.0730
      7  O1        23.2830   -1.5370   38.5260 O.3   487  INH487     -0.3649
      8  O2        22.1080   -3.8570   37.3910 O.3   487  INH487     -0.3841
      9  O3        19.2870   -3.6970   37.0700 O.3   487  INH487     -0.3864
     10  O4        18.3510   -1.0730   36.1800 O.3   487  INH487     -0.3401
     11  O5        21.4570   -0.3050   37.9940 O.3   487  INH487     -0.3407
     12  O6        18.8250    1.0920   38.5380 O.3   487  INH487     -0.3924
     13  C7        17.0640   -1.4660   36.5050 C.3   487  INH487      0.1884
     14  C8        16.0880   -0.8130   35.5200 C.3   487  INH487      0.1341
     15  C9        14.6730   -1.3640   35.7160 C.3   487  INH487      0.1141
     16  C10       14.7090   -2.8860   35.5940 C.3   487  INH487      0.1119
     17  C11       15.6880   -3.4240   36.6310 C.3   487  INH487      0.1130
     18  C12       15.8030   -4.9310   36.6130 C.3   487  INH487      0.0730
     19  O7        16.0910    0.5950   35.7020 O.3   487  INH487     -0.3841
     20  O8        13.8010   -0.8210   34.7360 O.3   487  INH487     -0.3864
     21  O9        15.1340   -3.2600   34.2860 O.3   487  INH487     -0.3865
     22  O10       17.0070   -2.8950   36.3840 O.3   487  INH487     -0.3405
     23  O11       16.7230   -5.3740   37.5930 O.3   487  INH487     -0.3924
     24  H1        22.5970   -1.3590   36.6130 H     487  INH487      0.0935
     25  H2        21.0230   -2.8150   38.8020 H     487  INH487      0.0671
     26  H3        20.4650   -2.5740   35.8060 H     487  INH487      0.0648
     27  H4        18.9440   -1.3340   38.1620 H     487  INH487      0.0651
     28  H5        20.7470   -0.0330   36.0640 H     487  INH487      0.0647
     29  H6        19.1850    1.6200   36.5790 H     487  INH487      0.0584
     30  H7        20.5220    1.9410   37.7360 H     487  INH487      0.0584
     31  H8        23.8190   -0.7570   38.4500 H     487  INH487      0.2126
     32  H9        22.8680   -3.9330   37.9560 H     487  INH487      0.2101
     33  H10       19.7610   -4.4980   36.8800 H     487  INH487      0.2100
     34  H11       18.4440    1.9380   38.7430 H     487  INH487      0.2095
     35  H12       16.8170   -1.1630   37.5330 H     487  INH487      0.0938
     36  H13       16.4160   -1.0400   34.4950 H     487  INH487      0.0671
     37  H14       14.3090   -1.0870   36.7160 H     487  INH487      0.0648
     38  H15       13.7060   -3.2970   35.7830 H     487  INH487      0.0647
     39  H16       15.3460   -3.1060   37.6270 H     487  INH487      0.0647
     40  H17       16.1490   -5.2550   35.6200 H     487  INH487      0.0584
     41  H18       14.8160   -5.3710   36.8190 H     487  INH487      0.0584
     42  H19       16.9720    0.9280   35.5790 H     487  INH487      0.2101
     43  H20       13.7830    0.1250   34.8170 H     487  INH487      0.2100
     44  H21       14.5200   -2.9220   33.6450 H     487  INH487      0.2100
     45  H22       16.7820   -6.3220   37.5670 H     487  INH487      0.2095
@<TRIPOS>BOND
     1     1    24    1
     2     1    11    1
     3     1     7    1
     4     1     2    1
     5     2    25    1
     6     2     8    1
     7     2     3    1
     8     3    26    1
     9     3     9    1
    10     3     4    1
    11     4    27    1
    12     4    10    1
    13     4     5    1
    14     5    28    1
    15     5    11    1
    16     5     6    1
    17     6    30    1
    18     6    29    1
    19     6    12    1
    20     7    31    1
    21     8    32    1
    22     9    33    1
    23    10    13    1
    24    12    34    1
    25    13    35    1
    26    13    22    1
    27    13    14    1
    28    14    36    1
    29    14    19    1
    30    14    15    1
    31    15    37    1
    32    15    20    1
    33    15    16    1
    34    16    38    1
    35    16    21    1
    36    16    17    1
    37    17    39    1
    38    17    22    1
    39    17    18    1
    40    18    41    1
    41    18    40    1
    42    18    23    1
    43    19    42    1
    44    20    43    1
    45    21    44    1
    46    23    45    1
