@<TRIPOS>MOLECULE
/tmp/ewbell/vina_1ax1_1ax1_lig/vina/vina3.pdbqt
 31 32 0 0 0
SMALL
GASTEIGER

@<TRIPOS>ATOM
      1  O4        18.2710   -0.8200   36.6610 O.3   487  INH487     -0.3480
      2  C4        19.0210   -0.5060   37.8500 C.3   487  INH487      0.1870
      3  C3        18.1470    0.3090   38.8150 C.3   487  INH487      0.1830
      4  C2        18.8590    0.4750   40.1510 C.3   487  INH487      0.2040
      5  C1        19.2760   -0.8910   40.6940 C.3   487  INH487      0.2880
      6  O5        20.1250   -1.5450   39.7530 O.3   487  INH487     -0.3490
      7  C5        19.4460   -1.8150   38.5200 C.3   487  INH487      0.1800
      8  O3        17.8790    1.5900   38.2710 O.3   487  INH487     -0.3900
      9  H10       17.6380    1.5020   37.3560 H     487  INH487      0.2100
     10  O2        17.9950    1.1250   41.0740 O.3   487  INH487     -0.3880
     11  H9        17.0910    0.9450   40.8410 H     487  INH487      0.2100
     12  O1        19.9940   -0.7280   41.8630 O.3   487  INH487     -0.3690
     13  H8        19.4680   -1.0160   42.5990 H     487  INH487      0.2120
     14  C6        20.3790   -2.6560   37.6700 C.3   487  INH487      0.1980
     15  O6        19.6580   -3.6220   36.9200 O.3   487  INH487     -0.3980
     16  H11       20.2660   -4.1330   36.3980 H     487  INH487      0.2090
     17  C7        16.9830   -1.3050   36.8120 C.3   487  INH487      0.2920
     18  O10       17.0250   -2.7200   36.5720 O.3   487  INH487     -0.3480
     19  C11       15.7220   -3.3360   36.6320 C.3   487  INH487      0.1790
     20  C10       14.8250   -2.7610   35.5410 C.3   487  INH487      0.1800
     21  C9        14.6850   -1.2590   35.7800 C.3   487  INH487      0.1830
     22  C8        16.0770   -0.6210   35.7830 C.3   487  INH487      0.2040
     23  C12       15.9290   -4.8270   36.5060 C.3   487  INH487      0.1980
     24  O11       17.1690   -5.1100   35.8840 O.3   487  INH487     -0.3980
     25  H22       17.8730   -4.9860   36.5100 H     487  INH487      0.2090
     26  O9        15.4050   -2.9990   34.2610 O.3   487  INH487     -0.3900
     27  H21       16.0100   -3.7280   34.3190 H     487  INH487      0.2100
     28  O8        13.8870   -0.6790   34.7590 O.3   487  INH487     -0.3900
     29  H20       13.6270    0.1960   35.0180 H     487  INH487      0.2100
     30  O7        15.9750    0.7640   36.0770 O.3   487  INH487     -0.3880
     31  H19       15.1600    0.9310   36.5340 H     487  INH487      0.2100
@<TRIPOS>BOND
     1    26    27    1
     2    26    20    1
     3    28    29    1
     4    28    21    1
     5    20    21    1
     6    20    19    1
     7    21    22    1
     8    22    30    1
     9    22    17    1
    10    24    23    1
    11    24    25    1
    12    30    31    1
    13    16    15    1
    14    23    19    1
    15    18    19    1
    16    18    17    1
    17     1    17    1
    18     1     2    1
    19    15    14    1
    20     9     8    1
    21    14     7    1
    22     2     7    1
    23     2     3    1
    24     8     3    1
    25     7     6    1
    26     3     4    1
    27     6     5    1
    28     4     5    1
    29     4    10    1
    30     5    12    1
    31    11    10    1
    32    12    13    1
