@<TRIPOS>MOLECULE
/tmp/ewbell/vina_1ax1_1ax1_lig/vina/vina4.pdbqt
 31 32 0 0 0
SMALL
GASTEIGER

@<TRIPOS>ATOM
      1  O4        16.9350    0.0060   34.5020 O.3   487  INH487     -0.3480
      2  C4        17.2440    1.3990   34.7020 C.3   487  INH487      0.1870
      3  C3        18.7470    1.5640   34.9710 C.3   487  INH487      0.1830
      4  C2        19.1170    3.0410   34.9860 C.3   487  INH487      0.2040
      5  C1        18.6400    3.7120   33.6990 C.3   487  INH487      0.2880
      6  O5        17.2290    3.5510   33.5660 O.3   487  INH487     -0.3490
      7  C5        16.8590    2.1720   33.4380 C.3   487  INH487      0.1800
      8  O3        19.0880    0.9880   36.2210 O.3   487  INH487     -0.3900
      9  H10       20.0290    1.0280   36.3420 H     487  INH487      0.2100
     10  O2        20.5260    3.1780   35.1150 O.3   487  INH487     -0.3880
     11  H9        20.7210    3.8410   35.7680 H     487  INH487      0.2100
     12  O1        18.9030    5.0670   33.7540 O.3   487  INH487     -0.3690
     13  H8        19.1540    5.3750   32.8930 H     487  INH487      0.2120
     14  C6        15.3740    2.1330   33.1320 C.3   487  INH487      0.1980
     15  O6        14.6150    1.8840   34.3060 O.3   487  INH487     -0.3980
     16  H11       13.6900    1.9680   34.1070 H     487  INH487      0.2090
     17  C7        16.4040   -0.7020   35.5670 C.3   487  INH487      0.2920
     18  O10       17.4790   -1.4310   36.1780 O.3   487  INH487     -0.3480
     19  C11       17.0380   -2.2690   37.2660 C.3   487  INH487      0.1790
     20  C10       16.0680   -3.3250   36.7480 C.3   487  INH487      0.1800
     21  C9        14.8630   -2.6110   36.1400 C.3   487  INH487      0.1830
     22  C8        15.3450   -1.6720   35.0310 C.3   487  INH487      0.2040
     23  C12       18.2750   -2.8590   37.9020 C.3   487  INH487      0.1980
     24  O11       19.0640   -3.5280   36.9360 O.3   487  INH487     -0.3980
     25  H22       18.9880   -4.4660   37.0600 H     487  INH487      0.2090
     26  O9        16.7090   -4.1280   35.7590 O.3   487  INH487     -0.3900
     27  H21       16.7400   -3.6520   34.9380 H     487  INH487      0.2100
     28  O8        13.9540   -3.5630   35.6080 O.3   487  INH487     -0.3900
     29  H20       13.0700   -3.2230   35.6660 H     487  INH487      0.2100
     30  O7        14.2480   -0.9420   34.5020 O.3   487  INH487     -0.3880
     31  H19       13.4750   -1.4940   34.4970 H     487  INH487      0.2100
@<TRIPOS>BOND
     1    13    12    1
     2    14     7    1
     3    14    15    1
     4     7     6    1
     5     7     2    1
     6     6     5    1
     7     5    12    1
     8     5     4    1
     9    16    15    1
    10    31    30    1
    11     1     2    1
    12     1    17    1
    13    30    22    1
    14     2     3    1
    15    27    26    1
    16     3     4    1
    17     3     8    1
    18     4    10    1
    19    22    17    1
    20    22    21    1
    21    10    11    1
    22    17    18    1
    23    28    29    1
    24    28    21    1
    25    26    20    1
    26    21    20    1
    27    18    19    1
    28     8     9    1
    29    20    19    1
    30    24    25    1
    31    24    23    1
    32    19    23    1
