@<TRIPOS>MOLECULE
/tmp/ewbell/vina_1ax1_1ax1_lig/vina/vina5.pdbqt
 31 32 0 0 0
SMALL
GASTEIGER

@<TRIPOS>ATOM
      1  O4        15.6910    0.7780   37.0130 O.3   487  INH487     -0.3480
      2  C4        15.4680   -0.6420   36.9140 C.3   487  INH487      0.1870
      3  C3        15.3310   -1.0450   35.4390 C.3   487  INH487      0.1830
      4  C2        15.2940   -2.5620   35.3130 C.3   487  INH487      0.2040
      5  C1        16.5060   -3.1740   36.0120 C.3   487  INH487      0.2880
      6  O5        16.5160   -2.7870   37.3850 O.3   487  INH487     -0.3490
      7  C5        16.6620   -1.3690   37.5390 C.3   487  INH487      0.1800
      8  O3        14.1400   -0.5060   34.8910 O.3   487  INH487     -0.3900
      9  H10       14.1450   -0.6190   33.9480 H     487  INH487      0.2100
     10  O2        15.2890   -2.9260   33.9380 O.3   487  INH487     -0.3880
     11  H9        15.8730   -3.6640   33.8030 H     487  INH487      0.2100
     12  O1        16.4240   -4.5530   35.9670 O.3   487  INH487     -0.3690
     13  H8        15.5300   -4.8210   36.1350 H     487  INH487      0.2120
     14  C6        16.8330   -1.0940   39.0200 C.3   487  INH487      0.1980
     15  O6        17.5690    0.1000   39.2380 O.3   487  INH487     -0.3980
     16  H11       18.4890   -0.1120   39.3420 H     487  INH487      0.2090
     17  C7        16.6110    1.3540   36.1530 C.3   487  INH487      0.2920
     18  O10       17.7840    1.6630   36.9220 O.3   487  INH487     -0.3480
     19  C11       18.7970    2.3360   36.1490 C.3   487  INH487      0.1790
     20  C10       18.2680    3.6770   35.6520 C.3   487  INH487      0.1800
     21  C9        17.0510    3.4120   34.7680 C.3   487  INH487      0.1830
     22  C8        16.0050    2.6380   35.5750 C.3   487  INH487      0.2040
     23  C12       20.0160    2.4690   37.0330 C.3   487  INH487      0.1980
     24  O11       19.6370    2.7450   38.3680 O.3   487  INH487     -0.3980
     25  H22       20.1670    3.4570   38.7070 H     487  INH487      0.2090
     26  O9        17.8960    4.4920   36.7610 O.3   487  INH487     -0.3900
     27  H21       18.4720    5.2460   36.8050 H     487  INH487      0.2100
     28  O8        16.5030    4.6420   34.3180 O.3   487  INH487     -0.3900
     29  H20       17.1450    5.1020   33.7920 H     487  INH487      0.2100
     30  O7        14.8960    2.3160   34.7490 O.3   487  INH487     -0.3880
     31  H19       15.1800    1.7430   34.0480 H     487  INH487      0.2100
@<TRIPOS>BOND
     1    29    28    1
     2    11    10    1
     3    10     4    1
     4     9     8    1
     5    31    30    1
     6    28    21    1
     7    30    22    1
     8    21    22    1
     9    21    20    1
    10     8     3    1
    11     4     3    1
    12     4     5    1
    13     3     2    1
    14    22    17    1
    15    20    19    1
    16    20    26    1
    17    12     5    1
    18    12    13    1
    19     5     6    1
    20    19    18    1
    21    19    23    1
    22    17    18    1
    23    17     1    1
    24    26    27    1
    25     2     1    1
    26     2     7    1
    27    23    24    1
    28     6     7    1
    29     7    14    1
    30    24    25    1
    31    14    15    1
    32    15    16    1
