@<TRIPOS>MOLECULE
/tmp/ewbell/vina_1ax1_1ax1_lig/vina/vina2.pdbqt
 31 32 0 0 0
SMALL
GASTEIGER

@<TRIPOS>ATOM
      1  O4        16.6130    0.8610   35.4620 O.3   487  INH487     -0.3480
      2  C4        16.0990    2.1990   35.6010 C.3   487  INH487      0.1870
      3  C3        16.6430    2.8350   36.8880 C.3   487  INH487      0.1830
      4  C2        16.2670    4.3090   36.9430 C.3   487  INH487      0.2040
      5  C1        16.7220    5.0120   35.6650 C.3   487  INH487      0.2880
      6  O5        16.1230    4.3860   34.5330 O.3   487  INH487     -0.3490
      7  C5        16.5460    3.0230   34.3910 C.3   487  INH487      0.1800
      8  O3        16.1060    2.1770   38.0250 O.3   487  INH487     -0.3900
      9  H10       15.6790    2.8130   38.5860 H     487  INH487      0.2100
     10  O2        16.8760    4.9150   38.0770 O.3   487  INH487     -0.3880
     11  H9        17.7480    5.2140   37.8450 H     487  INH487      0.2100
     12  O1        16.3050    6.3290   35.6840 O.3   487  INH487     -0.3690
     13  H8        17.0450    6.8970   35.5110 H     487  INH487      0.2120
     14  C6        15.9920    2.5170   33.0730 C.3   487  INH487      0.1980
     15  O6        14.6660    2.0330   33.2270 O.3   487  INH487     -0.3980
     16  H11       14.1830    2.6140   33.8050 H     487  INH487      0.2090
     17  C7        16.0270   -0.1430   36.2150 C.3   487  INH487      0.2920
     18  O10       17.0640   -0.7560   36.9960 O.3   487  INH487     -0.3480
     19  C11       16.5890   -1.8710   37.7770 C.3   487  INH487      0.1790
     20  C10       16.0680   -2.9680   36.8540 C.3   487  INH487      0.1800
     21  C9        14.9120   -2.3950   36.0370 C.3   487  INH487      0.1830
     22  C8        15.4060   -1.1700   35.2620 C.3   487  INH487      0.2040
     23  C12       17.7370   -2.3250   38.6480 C.3   487  INH487      0.1980
     24  O11       17.6790   -3.7220   38.8650 O.3   487  INH487     -0.3980
     25  H22       16.8570   -4.0610   38.5300 H     487  INH487      0.2090
     26  O9        17.1090   -3.4050   35.9840 O.3   487  INH487     -0.3900
     27  H21       16.7670   -3.4970   35.1030 H     487  INH487      0.2100
     28  O8        14.4250   -3.3760   35.1340 O.3   487  INH487     -0.3900
     29  H20       13.9010   -4.0100   35.6070 H     487  INH487      0.2100
     30  O7        14.3280   -0.5770   34.5530 O.3   487  INH487     -0.3880
     31  H19       14.2790    0.3460   34.7680 H     487  INH487      0.2100
@<TRIPOS>BOND
     1    14    15    1
     2    14     7    1
     3    15    16    1
     4     7     6    1
     5     7     2    1
     6     6     5    1
     7    30    31    1
     8    30    22    1
     9    27    26    1
    10    28    29    1
    11    28    21    1
    12    22    21    1
    13    22    17    1
    14     1     2    1
    15     1    17    1
    16    13    12    1
    17     2     3    1
    18     5    12    1
    19     5     4    1
    20    26    20    1
    21    21    20    1
    22    17    18    1
    23    20    19    1
    24     3     4    1
    25     3     8    1
    26     4    10    1
    27    18    19    1
    28    19    23    1
    29    11    10    1
    30     8     9    1
    31    25    24    1
    32    23    24    1
