@<TRIPOS>MOLECULE
/tmp/ewbell/vina_1ax1_1ax1_lig/vina/vina1.pdbqt
 31 32 0 0 0
SMALL
GASTEIGER

@<TRIPOS>ATOM
      1  O4         7.4600  -12.6640   41.2350 O.3   487  INH487     -0.3480
      2  C4         7.3480  -14.0360   41.6610 C.3   487  INH487      0.1870
      3  C3         7.0170  -14.9290   40.4570 C.3   487  INH487      0.1830
      4  C2         7.0930  -16.3960   40.8570 C.3   487  INH487      0.2040
      5  C1         8.4480  -16.6940   41.4950 C.3   487  INH487      0.2880
      6  O5         8.6400  -15.8550   42.6330 O.3   487  INH487     -0.3490
      7  C5         8.6840  -14.4680   42.2720 C.3   487  INH487      0.1800
      8  O3         5.7120  -14.6450   39.9810 O.3   487  INH487     -0.3900
      9  H10        5.7170  -13.8190   39.5130 H     487  INH487      0.2100
     10  O2         6.9030  -17.2140   39.7090 O.3   487  INH487     -0.3880
     11  H9         6.7200  -18.1050   39.9830 H     487  INH487      0.2100
     12  O1         8.4800  -18.0040   41.9310 O.3   487  INH487     -0.3690
     13  H8         8.8170  -18.0340   42.8180 H     487  INH487      0.2120
     14  C6         9.0610  -13.6930   43.5190 C.3   487  INH487      0.1980
     15  O6         9.6860  -12.4620   43.1870 O.3   487  INH487     -0.3980
     16  H11       10.6190  -12.5270   43.3560 H     487  INH487      0.2090
     17  C7         6.5410  -11.7530   41.7280 C.3   487  INH487      0.2920
     18  O10        5.2690  -12.0630   41.1390 O.3   487  INH487     -0.3480
     19  C11        4.2350  -11.1340   41.5230 C.3   487  INH487      0.1790
     20  C10        4.5840   -9.7340   41.0300 C.3   487  INH487      0.1800
     21  C9         5.9030   -9.3160   41.6750 C.3   487  INH487      0.1830
     22  C8         6.9820  -10.3430   41.3200 C.3   487  INH487      0.2040
     23  C12        2.9350  -11.6560   40.9560 C.3   487  INH487      0.1980
     24  O11        3.1800  -12.6470   39.9750 O.3   487  INH487     -0.3980
     25  H22        2.6440  -13.4100   40.1550 H     487  INH487      0.2090
     26  O9         4.7160   -9.7390   39.6100 O.3   487  INH487     -0.3900
     27  H21        4.5050   -8.8780   39.2710 H     487  INH487      0.2100
     28  O8         6.2850   -8.0310   41.2080 O.3   487  INH487     -0.3900
     29  H20        5.5770   -7.6560   40.6980 H     487  INH487      0.2100
     30  O7         8.2000  -10.0130   41.9710 O.3   487  INH487     -0.3880
     31  H19        8.4910  -10.7530   42.4900 H     487  INH487      0.2100
@<TRIPOS>BOND
     1    27    26    1
     2     9     8    1
     3    26    20    1
     4    10    11    1
     5    10     4    1
     6    24    25    1
     7    24    23    1
     8     8     3    1
     9     3     4    1
    10     3     2    1
    11    29    28    1
    12     4     5    1
    13    23    19    1
    14    20    19    1
    15    20    21    1
    16    18    19    1
    17    18    17    1
    18    28    21    1
    19     1     2    1
    20     1    17    1
    21    22    21    1
    22    22    17    1
    23    22    30    1
    24     5    12    1
    25     5     6    1
    26     2     7    1
    27    12    13    1
    28    30    31    1
    29     7     6    1
    30     7    14    1
    31    15    16    1
    32    15    14    1
