@<TRIPOS>MOLECULE
./ligand/3bxe_lig.pdb
 15 14 0 0 0
SMALL
GASTEIGER

@<TRIPOS>ATOM
      1  P1       -43.0440    4.4020    4.7760 P.3   506  INH506      0.5323
      2  O1       -44.4530    4.5630    5.3160 O.3   506  INH506     -0.1145
      3  O2       -41.9090    4.6880    5.7580 O.3   506  INH506     -0.1145
      4  O3       -42.8640    5.0660    3.4200 O.2   506  INH506     -0.2224
      5  O4       -42.8990    2.8190    4.4800 O.3   506  INH506     -0.2759
      6  C1       -43.0600    1.8880    5.5780 C.3   506  INH506      0.1195
      7  C2       -42.3320    0.5840    5.3600 C.2   506  INH506      0.1844
      8  O5       -41.5340    0.4550    4.4390 O.2   506  INH506     -0.2925
      9  C3       -42.6000   -0.5740    6.2970 C.3   506  INH506      0.1046
     10  O6       -42.0420   -1.7950    5.7660 O.3   506  INH506     -0.3874
     11  H1       -44.1320    1.6740    5.7010 H     506  INH506      0.0646
     12  H2       -42.6720    2.3570    6.4940 H     506  INH506      0.0646
     13  H3       -43.6860   -0.6960    6.4200 H     506  INH506      0.0637
     14  H4       -42.1420   -0.3620    7.2740 H     506  INH506      0.0637
     15  H5       -42.2190   -2.5110    6.3650 H     506  INH506      0.2100
@<TRIPOS>BOND
     1     1     5    1
     2     1     4    2
     3     1     3    1
     4     1     2    1
     5     5     6    1
     6     6    12    1
     7     6    11    1
     8     6     7    1
     9     7     9    1
    10     7     8    2
    11     9    14    1
    12     9    13    1
    13     9    10    1
    14    10    15    1
