@<TRIPOS>MOLECULE
/tmp/ewbell/vina_3bxe_3bxe_lig/vina/vina3.pdbqt
 13 12 0 0 0
SMALL
GASTEIGER

@<TRIPOS>ATOM
      1  O4       -40.9160   -2.1740    4.9240 O.3   506  INH506     -0.2900
      2  P1       -40.9030   -1.1670    6.1890 P.3   506  INH506      0.3910
      3  O3       -42.3700   -0.9320    6.5110 O.2   506  INH506     -0.6320
      4  O2       -40.1830    0.0700    5.6530 O.3   506  INH506     -0.3070
      5  H        -39.3440   -0.1950    5.2450 H     506  INH506      0.2220
      6  O1       -40.1860   -1.9360    7.2840 O.3   506  INH506     -0.3070
      7  H        -40.8270   -2.4760    7.7720 H     506  INH506      0.2220
      8  C1       -39.6830   -2.3960    4.1970 C.3   506  INH506      0.2610
      9  C2       -39.7040   -1.8160    2.8040 C.2   506  INH506      0.1740
     10  O5       -40.1940   -0.7130    2.5900 O.2   506  INH506     -0.2930
     11  C3       -39.1110   -2.6160    1.6640 C.3   506  INH506      0.2440
     12  O6       -37.8890   -2.0030    1.1980 O.3   506  INH506     -0.3940
     13  H5       -37.5560   -1.4140    1.8640 H     506  INH506      0.2090
@<TRIPOS>BOND
     1    12    11    1
     2    12    13    1
     3    11     9    1
     4    10     9    2
     5     9     8    1
     6     8     1    1
     7     1     2    1
     8     5     4    1
     9     4     2    1
    10     2     3    2
    11     2     6    1
    12     6     7    1
