@<TRIPOS>MOLECULE
/tmp/ewbell/vina_3bxe_3bxe_lig/vina/vina5.pdbqt
 13 12 0 0 0
SMALL
GASTEIGER

@<TRIPOS>ATOM
      1  O4       -41.4600    1.8520    5.2500 O.3   506  INH506     -0.2900
      2  P1       -42.4650    3.1030    5.4460 P.3   506  INH506      0.3910
      3  O3       -41.5630    4.3280    5.4330 O.2   506  INH506     -0.6320
      4  O2       -43.1160    2.8310    6.8010 O.3   506  INH506     -0.3070
      5  H        -44.0200    2.5100    6.6670 H     506  INH506      0.2220
      6  O1       -43.3840    3.0490    4.2390 O.3   506  INH506     -0.3070
      7  H        -43.0700    3.6740    3.5660 H     506  INH506      0.2220
      8  C1       -41.9250    0.5250    5.5980 C.3   506  INH506      0.2610
      9  C2       -40.8470   -0.5270    5.4950 C.2   506  INH506      0.1740
     10  O5       -40.2590   -0.9240    6.4930 O.2   506  INH506     -0.2930
     11  C3       -40.4960   -1.0890    4.1340 C.3   506  INH506      0.2440
     12  O6       -40.9590   -0.2090    3.0870 O.3   506  INH506     -0.3940
     13  H5       -41.8420    0.0800    3.2840 H     506  INH506      0.2090
@<TRIPOS>BOND
     1    12    13    1
     2    12    11    1
     3     7     6    1
     4    11     9    1
     5     6     2    1
     6     1     2    1
     7     1     8    1
     8     3     2    2
     9     2     4    1
    10     9     8    1
    11     9    10    2
    12     5     4    1
