@<TRIPOS>MOLECULE
/tmp/ewbell/vina_3bxe_3bxe_lig/vina/vina4.pdbqt
 13 12 0 0 0
SMALL
GASTEIGER

@<TRIPOS>ATOM
      1  O4       -41.8200   -0.4800    5.8030 O.3   506  INH506     -0.2900
      2  P1       -40.6950   -1.6390    5.7350 P.3   506  INH506      0.3910
      3  O3       -40.1510   -1.7330    7.1530 O.2   506  INH506     -0.6320
      4  O2       -39.6850   -1.0970    4.7230 O.3   506  INH506     -0.3070
      5  H        -40.1260   -0.9560    3.8720 H     506  INH506      0.2220
      6  O1       -41.4530   -2.8870    5.3220 O.3   506  INH506     -0.3070
      7  H        -40.8250   -3.6100    5.1690 H     506  INH506      0.2220
      8  C1       -41.5580    0.7850    5.1490 C.3   506  INH506      0.2610
      9  C2       -41.8510    1.9770    6.0260 C.2   506  INH506      0.1740
     10  O5       -42.8290    1.9890    6.7650 O.2   506  INH506     -0.2930
     11  C3       -40.9200    3.1700    5.9830 C.3   506  INH506      0.2440
     12  O6       -41.5870    4.3130    5.4050 O.3   506  INH506     -0.3940
     13  H5       -41.0000    4.7490    4.7990 H     506  INH506      0.2090
@<TRIPOS>BOND
     1     5     4    1
     2     4     2    1
     3    13    12    1
     4     8     1    1
     5     8     9    1
     6     7     6    1
     7     6     2    1
     8    12    11    1
     9     2     1    1
    10     2     3    2
    11    11     9    1
    12     9    10    2
