@<TRIPOS>MOLECULE
/tmp/ewbell/vina_3bxe_3bxe_lig/vina/vina2.pdbqt
 13 12 0 0 0
SMALL
GASTEIGER

@<TRIPOS>ATOM
      1  O4       -42.1650   -1.2170    5.6430 O.3   506  INH506     -0.2900
      2  P1       -40.6610   -1.8080    5.6980 P.3   506  INH506      0.3910
      3  O3       -40.7740   -3.2060    5.1090 O.2   506  INH506     -0.6320
      4  O2       -40.3250   -1.7930    7.1890 O.3   506  INH506     -0.3070
      5  H        -40.7330   -1.0180    7.6050 H     506  INH506      0.2220
      6  O1       -39.8500   -0.8730    4.8200 O.3   506  INH506     -0.3070
      7  H        -39.5430   -1.3530    4.0350 H     506  INH506      0.2220
      8  C1       -42.4700   -0.0190    6.3980 C.3   506  INH506      0.2610
      9  C2       -42.5050    1.2250    5.5440 C.2   506  INH506      0.1740
     10  O5       -41.9230    1.2650    4.4660 O.2   506  INH506     -0.2930
     11  C3       -43.2710    2.4340    6.0360 C.3   506  INH506      0.2440
     12  O6       -42.7250    2.9040    7.2880 O.3   506  INH506     -0.3940
     13  H5       -42.6250    3.8480    7.2560 H     506  INH506      0.2090
@<TRIPOS>BOND
     1     7     6    1
     2    10     9    2
     3     6     2    1
     4     3     2    2
     5     9    11    1
     6     9     8    1
     7     1     2    1
     8     1     8    1
     9     2     4    1
    10    11    12    1
    11     4     5    1
    12    13    12    1
