@<TRIPOS>MOLECULE
/tmp/ewbell/vina_3bxe_3bxe_lig/vina/vina1.pdbqt
 13 12 0 0 0
SMALL
GASTEIGER

@<TRIPOS>ATOM
      1  O4       -42.3660    2.0710    5.1930 O.3   506  INH506     -0.2900
      2  P1       -41.6830    3.2280    6.0920 P.3   506  INH506      0.3910
      3  O3       -41.9240    4.5130    5.3150 O.2   506  INH506     -0.6320
      4  O2       -40.2130    2.8120    6.1530 O.3   506  INH506     -0.3070
      5  H        -40.1520    1.8760    6.3990 H     506  INH506      0.2220
      6  O1       -42.4440    3.1930    7.4050 O.3   506  INH506     -0.3070
      7  H        -41.8680    3.5070    8.1200 H     506  INH506      0.2220
      8  C1       -41.6600    0.8180    5.0160 C.3   506  INH506      0.2610
      9  C2       -42.0970   -0.2500    5.9890 C.2   506  INH506      0.1740
     10  O5       -43.2100   -0.2180    6.5000 O.2   506  INH506     -0.2930
     11  C3       -41.1380   -1.3690    6.3320 C.3   506  INH506      0.2440
     12  O6       -41.5420   -2.5970    5.6870 O.3   506  INH506     -0.3940
     13  H5       -41.1670   -2.6340    4.8140 H     506  INH506      0.2090
@<TRIPOS>BOND
     1    13    12    1
     2     8     1    1
     3     8     9    1
     4     1     2    1
     5     3     2    2
     6    12    11    1
     7     9    11    1
     8     9    10    2
     9     2     4    1
    10     2     6    1
    11     4     5    1
    12     6     7    1
