@<TRIPOS>MOLECULE
./ligand/2fai_lig.pdb
 42 44 0 0 0
SMALL
GASTEIGER

@<TRIPOS>ATOM
      1  C1         3.6660    0.2770   -3.0930 C.3   512  INH512     -0.0611
      2  C2         3.9640   -0.4210   -4.4090 C.3   512  INH512     -0.0246
      3  C3         5.4600   -0.4160   -4.7500 C.3   512  INH512      0.0135
      4  C4         5.5760   -1.4260   -5.8560 C.2   512  INH512     -0.0704
      5  C5         6.7550   -2.4130   -5.8780 C.3   512  INH512     -0.0434
      6  C6         4.5540   -1.4350   -6.8140 C.2   512  INH512     -0.0840
      7  C7         3.4280   -0.5890   -6.8690 C.3   512  INH512     -0.0244
      8  C8         3.2010    0.2170   -5.5720 C.3   512  INH512      0.0238
      9  C9         1.7120    0.3400   -5.2700 C.3   512  INH512      0.0525
     10  O1         1.3190   -0.6960   -4.3670 O.3   512  INH512     -0.3944
     11  C10        3.7370    1.6170   -5.7650 C.3   512  INH512      0.0567
     12  O2         5.0690    1.4540   -6.2780 O.3   512  INH512     -0.3707
     13  C11        5.9280    0.9750   -5.2420 C.3   512  INH512      0.0903
     14  C12        7.3800    1.0900   -5.7800 C.ar  512  INH512     -0.0181
     15  C13        7.7380    0.7920   -7.1010 C.ar  512  INH512     -0.0527
     16  C14        9.0780    0.9200   -7.5080 C.ar  512  INH512     -0.0198
     17  C15       10.0410    1.3690   -6.6040 C.ar  512  INH512      0.1169
     18  O3        11.3500    1.5310   -6.9570 O.3   512  INH512     -0.5068
     19  C16        9.6670    1.6780   -5.3040 C.ar  512  INH512     -0.0198
     20  C17        8.3500    1.5390   -4.9020 C.ar  512  INH512     -0.0527
     21  H1         4.2310   -0.2090   -2.2840 H     512  INH512      0.0233
     22  H2         2.5890    0.2110   -2.8790 H     512  INH512      0.0233
     23  H3         3.9620    1.3340   -3.1630 H     512  INH512      0.0233
     24  H4         3.6370   -1.4670   -4.3120 H     512  INH512      0.0312
     25  H5         6.0590   -0.7160   -3.8780 H     512  INH512      0.0377
     26  H6         6.6680   -3.0690   -6.7570 H     512  INH512      0.0274
     27  H7         6.7400   -3.0230   -4.9630 H     512  INH512      0.0274
     28  H8         7.7010   -1.8540   -5.9300 H     512  INH512      0.0274
     29  H9         4.6390   -2.1790   -7.6050 H     512  INH512      0.0572
     30  H10        2.5370   -1.2070   -7.0560 H     512  INH512      0.0314
     31  H11        3.5640    0.1190   -7.7000 H     512  INH512      0.0314
     32  H12        1.1400    0.2470   -6.2050 H     512  INH512      0.0563
     33  H13        1.5110    1.3200   -4.8130 H     512  INH512      0.0563
     34  H14        0.3910   -0.6180   -4.1800 H     512  INH512      0.2094
     35  H15        3.7580    2.1550   -4.8060 H     512  INH512      0.0566
     36  H16        3.1140    2.1710   -6.4830 H     512  INH512      0.0566
     37  H17        5.8470    1.6530   -4.3790 H     512  INH512      0.0652
     38  H18        6.9840    0.4640   -7.8070 H     512  INH512      0.0622
     39  H19        9.3630    0.6700   -8.5240 H     512  INH512      0.0654
     40  H20       11.8440    1.8420   -6.2070 H     512  INH512      0.2921
     41  H21       10.4110    2.0300   -4.5990 H     512  INH512      0.0654
     42  H22        8.0740    1.7860   -3.8830 H     512  INH512      0.0622
@<TRIPOS>BOND
     1     1    23    1
     2     1    22    1
     3     1    21    1
     4     1     2    1
     5     2    24    1
     6     2     8    1
     7     2     3    1
     8     3    25    1
     9     3    13    1
    10     3     4    1
    11     4     6    2
    12     4     5    1
    13     5    28    1
    14     5    27    1
    15     5    26    1
    16     6    29    1
    17     6     7    1
    18     7    31    1
    19     7    30    1
    20     7     8    1
    21     8    11    1
    22     8     9    1
    23     9    33    1
    24     9    32    1
    25     9    10    1
    26    10    34    1
    27    11    36    1
    28    11    35    1
    29    11    12    1
    30    12    13    1
    31    13    37    1
    32    13    14    1
    33    14    20   ar
    34    14    15   ar
    35    15    38    1
    36    15    16   ar
    37    16    39    1
    38    16    17   ar
    39    17    19   ar
    40    17    18    1
    41    18    40    1
    42    19    41    1
    43    19    20   ar
    44    20    42    1
