@<TRIPOS>MOLECULE
/tmp/ewbell/vina_2fai_2fai_lig/vina/vina3.pdbqt
 22 24 0 0 0
SMALL
GASTEIGER

@<TRIPOS>ATOM
      1  C1         3.7330   -1.6790   -4.0550 C.3   512  INH512      0.0110
      2  C2         3.8480   -0.2900   -4.6590 C.3   512  INH512      0.0050
      3  C3         5.2130   -0.0480   -5.3180 C.3   512  INH512      0.0520
      4  C4         4.9990    1.1950   -6.1340 C.2   512  INH512     -0.0800
      5  C5         5.5920    1.3000   -7.5490 C.3   512  INH512      0.0430
      6  C6         4.2190    2.2040   -5.5560 C.2   512  INH512     -0.0230
      7  C7         3.6180    2.1950   -4.2810 C.3   512  INH512      0.0410
      8  C8         3.6170    0.8030   -3.6130 C.3   512  INH512      0.0100
      9  C10        4.7500    0.7360   -2.6150 C.3   512  INH512      0.1810
     10  O2         5.9160    1.1840   -3.3250 O.3   512  INH512     -0.3800
     11  C11        6.3220    0.1860   -4.2630 C.3   512  INH512      0.1630
     12  C12        7.7230    0.6070   -4.7820 C.ar  512  INH512     -0.0290
     13  C17        8.2670   -0.1350   -5.8160 C.ar  512  INH512      0.0120
     14  C16        9.5150    0.1690   -6.3310 C.ar  512  INH512      0.0370
     15  C15       10.2490    1.2280   -5.8170 C.ar  512  INH512      0.0650
     16  C14        9.7220    1.9860   -4.7710 C.ar  512  INH512      0.0370
     17  C13        8.4600    1.6670   -4.2400 C.ar  512  INH512      0.0120
     18  O3        11.4790    1.4840   -6.3510 O.3   512  INH512     -0.3610
     19  H20       12.1390    0.9880   -5.8790 H     512  INH512      0.2170
     20  C9         2.3210    0.5790   -2.8410 C.3   512  INH512      0.1760
     21  O1         1.4560    1.7030   -3.0210 O.3   512  INH512     -0.4000
     22  H14        1.9750    2.4970   -3.0710 H     512  INH512      0.2090
@<TRIPOS>BOND
     1     5     4    1
     2    18    19    1
     3    18    15    1
     4    14    15   ar
     5    14    13   ar
     6     4     6    2
     7     4     3    1
     8    15    16   ar
     9    13    12   ar
    10     6     7    1
    11     3     2    1
    12     3    11    1
    13    12    11    1
    14    12    17   ar
    15    16    17   ar
    16     2     1    1
    17     2     8    1
    18     7     8    1
    19    11    10    1
    20     8    20    1
    21     8     9    1
    22    10     9    1
    23    22    21    1
    24    21    20    1
