@<TRIPOS>MOLECULE
/tmp/ewbell/vina_2fai_2fai_lig/vina/vina4.pdbqt
 22 24 0 0 0
SMALL
GASTEIGER

@<TRIPOS>ATOM
      1  C1        -0.5170    4.2780    7.1570 C.3   512  INH512      0.0110
      2  C2        -1.9200    4.4340    6.5960 C.3   512  INH512      0.0050
      3  C3        -2.4450    3.1400    5.9600 C.3   512  INH512      0.0520
      4  C4        -3.9170    3.3930    5.8000 C.2   512  INH512     -0.0800
      5  C5        -4.9300    2.2820    6.1200 C.3   512  INH512      0.0430
      6  C6        -4.2960    4.6780    5.3890 C.2   512  INH512     -0.0230
      7  C7        -3.4480    5.7640    5.0920 C.3   512  INH512      0.0410
      8  C8        -1.9900    5.5490    5.5510 C.3   512  INH512      0.0100
      9  C10       -1.1600    5.1210    4.3620 C.3   512  INH512      0.1810
     10  O2        -1.8830    4.0380    3.7550 O.3   512  INH512     -0.3800
     11  C11       -1.7920    2.8770    4.5820 C.3   512  INH512      0.1630
     12  C12       -2.3440    1.6910    3.7450 C.ar  512  INH512     -0.0290
     13  C17       -2.9420    1.9910    2.5340 C.ar  512  INH512      0.0120
     14  C16       -3.4670    0.9940    1.7320 C.ar  512  INH512      0.0370
     15  C15       -3.4060   -0.3340    2.1300 C.ar  512  INH512      0.0650
     16  C14       -2.8130   -0.6590    3.3500 C.ar  512  INH512      0.0370
     17  C13       -2.2910    0.3570    4.1700 C.ar  512  INH512      0.0120
     18  O3        -3.9460   -1.2820    1.3100 O.3   512  INH512     -0.3610
     19  H20       -3.3610   -2.0290    1.2600 H     512  INH512      0.2170
     20  C9        -1.3940    6.8510    6.0740 C.3   512  INH512      0.1760
     21  O1        -0.3280    7.2680    5.2170 O.3   512  INH512     -0.4000
     22  H14       -0.6230    7.9890    4.6730 H     512  INH512      0.2090
@<TRIPOS>BOND
     1    19    18    1
     2    18    15    1
     3    14    15   ar
     4    14    13   ar
     5    15    16   ar
     6    13    12   ar
     7    16    17   ar
     8    12    17   ar
     9    12    11    1
    10    10     9    1
    11    10    11    1
    12     9     8    1
    13    11     3    1
    14    22    21    1
    15     7     6    1
    16     7     8    1
    17    21    20    1
    18     6     4    2
    19     8    20    1
    20     8     2    1
    21     4     3    1
    22     4     5    1
    23     3     2    1
    24     2     1    1
