@<TRIPOS>MOLECULE
/tmp/ewbell/vina_2fai_2fai_lig/vina/vina2.pdbqt
 22 24 0 0 0
SMALL
GASTEIGER

@<TRIPOS>ATOM
      1  C1         4.1070   -0.3250   -2.5820 C.3   512  INH512      0.0110
      2  C2         4.4290   -0.9960   -3.9070 C.3   512  INH512      0.0050
      3  C3         5.8830   -0.7710   -4.3400 C.3   512  INH512      0.0520
      4  C4         6.0860   -1.7730   -5.4410 C.2   512  INH512     -0.0800
      5  C5         7.3980   -2.5700   -5.5260 C.3   512  INH512      0.0430
      6  C6         5.0220   -1.9560   -6.3330 C.2   512  INH512     -0.0230
      7  C7         3.7790   -1.2910   -6.3270 C.3   512  INH512      0.0410
      8  C8         3.5090   -0.5040   -5.0270 C.3   512  INH512      0.0100
      9  C10        3.8130    0.9570   -5.2670 C.3   512  INH512      0.1810
     10  O2         5.1210    0.9880   -5.8600 O.3   512  INH512     -0.3800
     11  C11        6.1030    0.6650   -4.8750 C.3   512  INH512      0.1630
     12  C12        7.4860    0.9880   -5.5030 C.ar  512  INH512     -0.0290
     13  C17        8.5080    1.3450   -4.6420 C.ar  512  INH512      0.0120
     14  C16        9.7690    1.6560   -5.1210 C.ar  512  INH512      0.0370
     15  C15       10.0320    1.6180   -6.4830 C.ar  512  INH512      0.0650
     16  C14        9.0140    1.2660   -7.3700 C.ar  512  INH512      0.0370
     17  C13        7.7310    0.9630   -6.8820 C.ar  512  INH512      0.0120
     18  O3        11.2870    1.9430   -6.9090 O.3   512  INH512     -0.3610
     19  H20       11.8780    1.2180   -6.7380 H     512  INH512      0.2170
     20  C9         2.0400   -0.6020   -4.6350 C.3   512  INH512      0.1760
     21  O1         1.4330    0.6900   -4.7240 O.3   512  INH512     -0.4000
     22  H14        1.0080    0.7820   -5.5680 H     512  INH512      0.2090
@<TRIPOS>BOND
     1    16    17   ar
     2    16    15   ar
     3    18    19    1
     4    18    15    1
     5    17    12   ar
     6    15    14   ar
     7     6     7    1
     8     6     4    2
     9     7     8    1
    10    10     9    1
    11    10    11    1
    12    22    21    1
    13     5     4    1
    14    12    11    1
    15    12    13   ar
    16     4     3    1
    17     9     8    1
    18    14    13   ar
    19     8    20    1
    20     8     2    1
    21    11     3    1
    22    21    20    1
    23     3     2    1
    24     2     1    1
