@<TRIPOS>MOLECULE
/tmp/ewbell/vina_2fai_2fai_lig/vina/vina1.pdbqt
 22 24 0 0 0
SMALL
GASTEIGER

@<TRIPOS>ATOM
      1  C1         2.9160    0.0520   -6.8250 C.3   512  INH512      0.0110
      2  C2         3.5080    0.5210   -5.5070 C.3   512  INH512      0.0050
      3  C3         4.8840    1.1780   -5.6830 C.3   512  INH512      0.0520
      4  C4         5.1200    1.8660   -4.3680 C.2   512  INH512     -0.0800
      5  C5         5.7360    3.2750   -4.3350 C.3   512  INH512      0.0430
      6  C6         4.7210    1.1790   -3.2140 C.2   512  INH512     -0.0230
      7  C7         4.1320   -0.0990   -3.1420 C.3   512  INH512      0.0410
      8  C8         3.6460   -0.6300   -4.5080 C.3   512  INH512      0.0100
      9  C10        4.6730   -1.5950   -5.0530 C.3   512  INH512      0.1810
     10  O2         5.9330   -0.9120   -4.9630 O.3   512  INH512     -0.3800
     11  C11        5.9890    0.1250   -5.9440 C.3   512  INH512      0.1630
     12  C12        7.4580    0.6270   -5.9770 C.ar  512  INH512     -0.0290
     13  C17        7.9730    1.0060   -7.2040 C.ar  512  INH512      0.0120
     14  C16        9.2750    1.4570   -7.3230 C.ar  512  INH512      0.0370
     15  C15       10.0960    1.5360   -6.2060 C.ar  512  INH512      0.0650
     16  C14        9.5990    1.1540   -4.9600 C.ar  512  INH512      0.0370
     17  C13        8.2790    0.6830   -4.8440 C.ar  512  INH512      0.0120
     18  O3        11.3770    1.9770   -6.3740 O.3   512  INH512     -0.3610
     19  H20       11.9730    1.4080   -5.9000 H     512  INH512      0.2170
     20  C9         2.3390   -1.3990   -4.3510 C.3   512  INH512      0.1760
     21  O1         1.7150   -1.0360   -3.1170 O.3   512  INH512     -0.4000
     22  H14        1.0520   -0.3750   -3.2800 H     512  INH512      0.2090
@<TRIPOS>BOND
     1    14    13   ar
     2    14    15   ar
     3    13    12   ar
     4     1     2    1
     5    18    15    1
     6    18    19    1
     7    15    16   ar
     8    12    11    1
     9    12    17   ar
    10    11     3    1
    11    11    10    1
    12     3     2    1
    13     3     4    1
    14     2     8    1
    15     9    10    1
    16     9     8    1
    17    16    17   ar
    18     8    20    1
    19     8     7    1
    20     4     5    1
    21     4     6    2
    22    20    21    1
    23    22    21    1
    24     6     7    1
