@<TRIPOS>MOLECULE
/tmp/ewbell/vina_2fai_2fai_lig/vina/vina5.pdbqt
 22 24 0 0 0
SMALL
GASTEIGER

@<TRIPOS>ATOM
      1  C1        -6.4050    0.9120    2.2560 C.3   512  INH512      0.0110
      2  C2        -5.1880    0.4610    3.0460 C.3   512  INH512      0.0050
      3  C3        -4.6040    1.5820    3.9150 C.3   512  INH512      0.0520
      4  C4        -3.6730    0.8610    4.8470 C.2   512  INH512     -0.0800
      5  C5        -3.6130    1.2520    6.3330 C.3   512  INH512      0.0430
      6  C6        -2.9140   -0.1830    4.3010 C.2   512  INH512     -0.0230
      7  C7        -2.9130   -0.6280    2.9630 C.3   512  INH512      0.0410
      8  C8        -4.0820   -0.0640    2.1270 C.3   512  INH512      0.0100
      9  C10       -3.5780    1.0960    1.3000 C.3   512  INH512      0.1810
     10  O2        -2.8820    1.9530    2.2190 O.3   512  INH512     -0.3800
     11  C11       -3.8220    2.6140    3.0670 C.3   512  INH512      0.1630
     12  C12       -3.0370    3.7150    3.8290 C.ar  512  INH512     -0.0290
     13  C17       -1.6560    3.6910    3.7360 C.ar  512  INH512      0.0120
     14  C16       -0.8820    4.6320    4.3910 C.ar  512  INH512      0.0370
     15  C15       -1.4780    5.6220    5.1600 C.ar  512  INH512      0.0650
     16  C14       -2.8670    5.6610    5.2720 C.ar  512  INH512      0.0370
     17  C13       -3.6520    4.6970    4.6160 C.ar  512  INH512      0.0120
     18  O3        -0.6720    6.5220    5.7950 O.3   512  INH512     -0.3610
     19  H20        0.2370    6.3360    5.5870 H     512  INH512      0.2170
     20  C9        -4.6060   -1.1180    1.1580 C.3   512  INH512      0.1760
     21  O1        -4.5730   -2.4020    1.7840 O.3   512  INH512     -0.4000
     22  H14       -4.1750   -3.0320    1.1940 H     512  INH512      0.2090
@<TRIPOS>BOND
     1    20    21    1
     2    20     8    1
     3    22    21    1
     4     9     8    1
     5     9    10    1
     6     8     7    1
     7     8     2    1
     8    10    11    1
     9     1     2    1
    10     7     6    1
    11     2     3    1
    12    11    12    1
    13    11     3    1
    14    13    12   ar
    15    13    14   ar
    16    12    17   ar
    17     3     4    1
    18     6     4    2
    19    14    15   ar
    20    17    16   ar
    21     4     5    1
    22    15    16   ar
    23    15    18    1
    24    19    18    1
