@<TRIPOS>MOLECULE
./ligand/1h22_lig.pdb
 78 81 0 0 0
SMALL
GASTEIGER

@<TRIPOS>ATOM
      1  C1         4.6110   59.5350   71.3530 C.ar  533  INH533      0.2489
      2  N1         3.7670   58.4830   71.6150 N.ar  533  INH533     -0.3258
      3  C2         2.7900   58.4320   72.5350 C.ar  533  INH533      0.0275
      4  C3         2.5470   59.5350   73.3460 C.ar  533  INH533      0.0194
      5  C4         3.4020   60.7310   73.1820 C.ar  533  INH533     -0.0465
      6  C5         4.4030   60.7540   72.2300 C.ar  533  INH533      0.0032
      7  O1         5.4310   59.4610   70.4410 O.2   533  INH533     -0.2679
      8  C6         2.0090   57.0990   72.6480 C.3   533  INH533     -0.0117
      9  C7         1.4540   59.5250   74.4340 C.3   533  INH533      0.0049
     10  C8         0.7230   58.1450   74.5910 C.3   533  INH533     -0.0050
     11  C9         0.6170   57.3300   73.2570 C.3   533  INH533     -0.0423
     12  N2         0.4270   60.6230   74.0930 N.4   533  INH533      0.2325
     13  C10       -0.3570   60.4920   72.7930 C.3   533  INH533     -0.0331
     14  C11        0.9910   68.3680   60.8990 C.ar  533  INH533      0.2489
     15  N3         2.3790   68.3900   60.9720 N.ar  533  INH533     -0.3258
     16  C12        3.1540   68.3130   62.0900 C.ar  533  INH533      0.0275
     17  C13        2.5630   68.1880   63.3530 C.ar  533  INH533      0.0194
     18  C14        1.0760   68.1260   63.4100 C.ar  533  INH533     -0.0465
     19  C15        0.2890   68.2110   62.2470 C.ar  533  INH533      0.0032
     20  O2         0.4230   68.5620   59.8060 O.2   533  INH533     -0.2679
     21  C16        4.6770   68.3630   61.8600 C.3   533  INH533     -0.0117
     22  C17        3.4630   68.1010   64.6320 C.3   533  INH533      0.0049
     23  C18        4.9830   67.9090   64.3050 C.3   533  INH533     -0.0050
     24  C19        5.4440   68.7620   63.1480 C.3   533  INH533     -0.0423
     25  N4         3.1490   66.9030   65.5150 N.4   533  INH533      0.2325
     26  C20        4.1450   66.5400   66.6350 C.3   533  INH533     -0.0331
     27  C21       -0.8540   61.8630   72.3690 C.3   533  INH533     -0.0126
     28  C22        0.2800   62.8330   72.0220 C.3   533  INH533     -0.0483
     29  C23        1.0520   62.4120   70.8010 C.3   533  INH533     -0.0529
     30  C24        1.7930   63.5830   70.1510 C.3   533  INH533     -0.0531
     31  C25        3.2970   63.2790   70.1170 C.3   533  INH533     -0.0531
     32  C26        4.1290   63.8550   68.9560 C.3   533  INH533     -0.0529
     33  C27        4.2940   65.3940   68.9250 C.3   533  INH533     -0.0483
     34  C28        3.3800   66.0170   67.8370 C.3   533  INH533     -0.0126
     35  H1         3.8950   57.6630   71.0580 H     533  INH533      0.1686
     36  H2         3.2410   61.6010   73.8170 H     533  INH533      0.0624
     37  H3         5.0330   61.6340   72.1110 H     533  INH533      0.0672
     38  H4         2.5720   56.4050   73.2890 H     533  INH533      0.0328
     39  H5         1.8950   56.6620   71.6450 H     533  INH533      0.0328
     40  H6         1.9280   59.7660   75.3970 H     533  INH533      0.0904
     41  H7        -0.2940   58.3320   74.9650 H     533  INH533      0.0323
     42  H8         1.2770   57.5400   75.3240 H     533  INH533      0.0323
     43  H9        -0.0020   57.8900   72.5400 H     533  INH533      0.0271
     44  H10        0.1480   56.3570   73.4650 H     533  INH533      0.0271
     45  H11        0.9260   61.4980   74.0550 H     533  INH533      0.2020
     46  H12       -0.2430   60.6500   74.8450 H     533  INH533      0.2020
     47  H13       -1.2150   59.8210   72.9470 H     533  INH533      0.0814
     48  H14        0.2960   60.0790   72.0100 H     533  INH533      0.0814
     49  H15        2.8660   68.4720   60.1020 H     533  INH533      0.1686
     50  H16        0.5860   68.0120   64.3760 H     533  INH533      0.0624
     51  H17       -0.7980   68.1660   62.3060 H     533  INH533      0.0672
     52  H18        4.8940   69.1010   61.0740 H     533  INH533      0.0328
     53  H19        5.0200   67.3700   61.5350 H     533  INH533      0.0328
     54  H20        3.3210   69.0300   65.2040 H     533  INH533      0.0904
     55  H21        5.1580   66.8520   64.0540 H     533  INH533      0.0323
     56  H22        5.5710   68.1770   65.1950 H     533  INH533      0.0323
     57  H23        5.2500   69.8210   63.3750 H     533  INH533      0.0271
     58  H24        6.5230   68.6120   62.9920 H     533  INH533      0.0271
     59  H25        2.2590   67.0800   65.9530 H     533  INH533      0.2020
     60  H26        3.0720   66.0990   64.9110 H     533  INH533      0.2020
     61  H27        4.8370   65.7650   66.2740 H     533  INH533      0.0814
     62  H28        4.7150   67.4350   66.9240 H     533  INH533      0.0814
     63  H29       -1.4420   62.2930   73.1930 H     533  INH533      0.0317
     64  H30       -1.4960   61.7440   71.4840 H     533  INH533      0.0317
     65  H31        0.9720   62.8850   72.8750 H     533  INH533      0.0267
     66  H32       -0.1520   63.8280   71.8390 H     533  INH533      0.0267
     67  H33        0.3510   61.9860   70.0680 H     533  INH533      0.0265
     68  H34        1.7860   61.6470   71.0930 H     533  INH533      0.0265
     69  H35        1.6170   64.4980   70.7350 H     533  INH533      0.0265
     70  H36        1.4240   63.7260   69.1250 H     533  INH533      0.0265
     71  H37        3.4080   62.1850   70.0870 H     533  INH533      0.0265
     72  H38        3.7290   63.6660   71.0520 H     533  INH533      0.0265
     73  H39        3.6460   63.5510   68.0150 H     533  INH533      0.0265
     74  H40        5.1340   63.4120   69.0120 H     533  INH533      0.0265
     75  H41        5.3420   65.6410   68.7020 H     533  INH533      0.0267
     76  H42        4.0210   65.8070   69.9070 H     533  INH533      0.0267
     77  H43        2.8230   66.8520   68.2860 H     533  INH533      0.0317
     78  H44        2.6730   65.2480   67.4930 H     533  INH533      0.0317
@<TRIPOS>BOND
     1     1     7    2
     2     1     6   ar
     3     1     2   ar
     4     2    35    1
     5     2     3   ar
     6     3     8    1
     7     3     4   ar
     8     4     9    1
     9     4     5   ar
    10     5    36    1
    11     5     6   ar
    12     6    37    1
    13     8    11    1
    14     8    39    1
    15     8    38    1
    16     9    40    1
    17     9    12    1
    18     9    10    1
    19    10    42    1
    20    10    41    1
    21    10    11    1
    22    11    44    1
    23    11    43    1
    24    12    46    1
    25    12    45    1
    26    12    13    1
    27    13    48    1
    28    13    47    1
    29    13    27    1
    30    14    15   ar
    31    14    20    2
    32    14    19   ar
    33    15    16   ar
    34    15    49    1
    35    16    17   ar
    36    16    21    1
    37    17    22    1
    38    17    18   ar
    39    18    19   ar
    40    18    50    1
    41    19    51    1
    42    21    53    1
    43    21    52    1
    44    21    24    1
    45    22    25    1
    46    22    54    1
    47    22    23    1
    48    23    24    1
    49    23    56    1
    50    23    55    1
    51    24    58    1
    52    24    57    1
    53    25    26    1
    54    25    60    1
    55    25    59    1
    56    26    34    1
    57    26    62    1
    58    26    61    1
    59    27    64    1
    60    27    63    1
    61    27    28    1
    62    28    66    1
    63    28    65    1
    64    28    29    1
    65    29    68    1
    66    29    67    1
    67    29    30    1
    68    30    70    1
    69    30    69    1
    70    30    31    1
    71    31    72    1
    72    31    71    1
    73    31    32    1
    74    32    74    1
    75    32    73    1
    76    32    33    1
    77    33    76    1
    78    33    75    1
    79    33    34    1
    80    34    78    1
    81    34    77    1
