@<TRIPOS>MOLECULE
/tmp/ewbell/vina_1h22_1h22_lig/vina/vina2.pdbqt
 40 43 0 0 0
SMALL
GASTEIGER

@<TRIPOS>ATOM
      1  C24        2.5360   63.3660   70.6650 C.3   533  INH533      0.0000
      2  C23        1.1190   63.9300   70.5350 C.3   533  INH533      0.0000
      3  C22        0.2810   63.6520   71.7540 C.3   533  INH533      0.0020
      4  C21       -0.2830   62.2270   71.7720 C.3   533  INH533      0.0270
      5  C10       -0.5690   61.7170   73.1730 C.3   533  INH533      0.2330
      6  N2        -0.6710   60.1970   73.1420 N.4   533  INH533     -0.0670
      7  H12       -0.6680   59.9160   72.1750 H     533  INH533      0.2770
      8  H11       -1.5520   59.9480   73.5640 H     533  INH533      0.2770
      9  C7         0.4250   59.3830   73.8580 C.3   533  INH533      0.2200
     10  C3         1.4410   58.9100   72.7990 C.ar  533  INH533     -0.0050
     11  C2         1.6800   57.5620   72.5550 C.ar  533  INH533      0.0200
     12  C4         2.2290   59.9110   72.0450 C.ar  533  INH533      0.0170
     13  N1         2.5900   57.2010   71.6370 N.ar  533  INH533     -0.3270
     14  C6         0.9700   56.4170   73.3190 C.3   533  INH533      0.0580
     15  C1         3.3660   58.0290   70.8620 C.ar  533  INH533      0.2450
     16  H1         2.7180   56.2190   71.5010 H     533  INH533      0.1690
     17  O1         4.1260   57.5590   70.0190 O.2   533  INH533     -0.2680
     18  C5         3.1620   59.5100   71.1090 C.ar  533  INH533      0.0750
     19  C9        -0.3880   56.8840   73.8680 C.3   533  INH533      0.0080
     20  C8        -0.2300   58.2160   74.6780 C.3   533  INH533      0.0380
     21  C25        3.4380   64.0030   69.5990 C.3   533  INH533      0.0000
     22  C26        3.7610   65.5040   69.7230 C.3   533  INH533      0.0000
     23  C27        3.7600   66.3180   68.4060 C.3   533  INH533      0.0020
     24  C28        2.3360   66.8540   68.1000 C.3   533  INH533      0.0270
     25  C20        2.3320   68.0580   67.1750 C.3   533  INH533      0.2330
     26  N4         3.4690   67.9130   66.1430 N.4   533  INH533     -0.0670
     27  H26        3.9410   68.8020   66.0910 H     533  INH533      0.2770
     28  H25        4.1040   67.2150   66.4960 H     533  INH533      0.2770
     29  C17        3.1050   67.5130   64.7220 C.3   533  INH533      0.2200
     30  C13        3.5380   66.0540   64.3510 C.ar  533  INH533     -0.0050
     31  C12        4.3000   65.8240   63.2000 C.ar  533  INH533      0.0200
     32  C14        3.1870   64.8750   65.1890 C.ar  533  INH533      0.0170
     33  N3         4.6810   64.5580   62.8690 N.ar  533  INH533     -0.3270
     34  C16        4.7670   66.9400   62.2450 C.3   533  INH533      0.0580
     35  C11        4.3970   63.3810   63.5530 C.ar  533  INH533      0.2450
     36  H15        5.2300   64.4650   62.0380 H     533  INH533      0.1690
     37  O2         4.7230   62.2830   63.0610 O.2   533  INH533     -0.2680
     38  C15        3.5850   63.5720   64.8320 C.ar  533  INH533      0.0750
     39  C19        3.9140   68.2260   62.3980 C.3   533  INH533      0.0080
     40  C18        3.8160   68.6080   63.8540 C.3   533  INH533      0.0380
@<TRIPOS>BOND
     1    36    33    1
     2    34    39    1
     3    34    31    1
     4    39    40    1
     5    33    31   ar
     6    33    35   ar
     7    37    35    2
     8    31    30   ar
     9    35    38   ar
    10    40    29    1
    11    30    29    1
    12    30    32   ar
    13    29    26    1
    14    38    32   ar
    15    27    26    1
    16    26    28    1
    17    26    25    1
    18    25    24    1
    19    24    23    1
    20    23    22    1
    21    21    22    1
    22    21     1    1
    23    17    15    2
    24     2     1    1
    25     2     3    1
    26    15    18   ar
    27    15    13   ar
    28    18    12   ar
    29    16    13    1
    30    13    11   ar
    31     3     4    1
    32     4     5    1
    33    12    10   ar
    34     7     6    1
    35    11    10   ar
    36    11    14    1
    37    10     9    1
    38     6     5    1
    39     6     8    1
    40     6     9    1
    41    14    19    1
    42     9    20    1
    43    19    20    1
