@<TRIPOS>MOLECULE
/tmp/ewbell/vina_1h22_1h22_lig/vina/vina3.pdbqt
 40 43 0 0 0
SMALL
GASTEIGER

@<TRIPOS>ATOM
      1  C24        1.2080   64.4280   70.4420 C.3   533  INH533      0.0000
      2  C23        0.3450   63.1640   70.4800 C.3   533  INH533      0.0000
      3  C22        0.6710   62.2870   71.6590 C.3   533  INH533      0.0020
      4  C21        0.2570   62.9110   72.9950 C.3   533  INH533      0.0270
      5  C10        0.4670   61.9830   74.1780 C.3   533  INH533      0.2330
      6  N2         1.9600   61.8310   74.4390 N.4   533  INH533     -0.0670
      7  H12        2.1430   62.2060   75.3560 H     533  INH533      0.2770
      8  H11        2.4430   62.3820   73.7460 H     533  INH533      0.2770
      9  C7         2.5630   60.4130   74.3960 C.3   533  INH533      0.2200
     10  C3         3.1180   60.1700   72.9770 C.ar  533  INH533     -0.0050
     11  C2         2.6340   59.1540   72.1600 C.ar  533  INH533      0.0200
     12  C4         4.2320   61.0060   72.4760 C.ar  533  INH533      0.0170
     13  N1         3.1650   58.9710   70.9400 N.ar  533  INH533     -0.3270
     14  C6         1.5160   58.1720   72.5890 C.3   533  INH533      0.0580
     15  C1         4.1810   59.6870   70.3560 C.ar  533  INH533      0.2450
     16  H1         2.7760   58.2280   70.3950 H     533  INH533      0.1690
     17  O1         4.5340   59.4400   69.2050 O.2   533  INH533     -0.2680
     18  C5         4.7610   60.7910   71.2180 C.ar  533  INH533      0.0750
     19  C9         0.6210   58.7980   73.6690 C.3   533  INH533      0.0080
     20  C8         1.4870   59.3640   74.8470 C.3   533  INH533      0.0380
     21  C25        2.6730   64.0380   70.2020 C.3   533  INH533      0.0000
     22  C26        3.6600   65.1430   69.7820 C.3   533  INH533      0.0000
     23  C27        3.4530   65.7520   68.3750 C.3   533  INH533      0.0020
     24  C28        2.6610   67.0830   68.4700 C.3   533  INH533      0.0270
     25  C20        1.8820   67.4130   67.2080 C.3   533  INH533      0.2330
     26  N4         2.7410   67.0670   65.9750 N.4   533  INH533     -0.0670
     27  H26        3.5810   66.6220   66.3110 H     533  INH533      0.2770
     28  H25        2.2140   66.4120   65.4190 H     533  INH533      0.2770
     29  C17        3.1680   68.1990   65.0540 C.3   533  INH533      0.2200
     30  C13        2.4060   68.2150   63.6860 C.ar  533  INH533     -0.0050
     31  C12        3.1260   68.2490   62.4860 C.ar  533  INH533      0.0200
     32  C14        0.9200   68.1770   63.5930 C.ar  533  INH533      0.0170
     33  N3         2.4710   68.2630   61.2910 N.ar  533  INH533     -0.3270
     34  C16        4.6650   68.2630   62.4120 C.3   533  INH533      0.0580
     35  C11        1.0970   68.2550   61.0760 C.ar  533  INH533      0.2450
     36  H15        3.0470   68.2810   60.4730 H     533  INH533      0.1690
     37  O2         0.6490   68.3840   59.9200 O.2   533  INH533     -0.2680
     38  C15        0.2580   68.1950   62.3510 C.ar  533  INH533      0.0750
     39  C19        5.3040   68.7350   63.7450 C.3   533  INH533      0.0080
     40  C18        4.7100   67.9660   64.8990 C.3   533  INH533      0.0380
@<TRIPOS>BOND
     1    37    35    2
     2    36    33    1
     3    35    33   ar
     4    35    38   ar
     5    33    31   ar
     6    38    32   ar
     7    34    31    1
     8    34    39    1
     9    31    30   ar
    10    32    30   ar
    11    30    29    1
    12    39    40    1
    13    40    29    1
    14    29    26    1
    15    28    26    1
    16    26    27    1
    17    26    25    1
    18    25    24    1
    19    23    24    1
    20    23    22    1
    21    17    15    2
    22    22    21    1
    23    21     1    1
    24    15    13   ar
    25    15    18   ar
    26    16    13    1
    27     1     2    1
    28     2     3    1
    29    13    11   ar
    30    18    12   ar
    31     3     4    1
    32    11    14    1
    33    11    10   ar
    34    12    10   ar
    35    14    19    1
    36    10     9    1
    37     4     5    1
    38    19    20    1
    39     8     6    1
    40     5     6    1
    41     9     6    1
    42     9    20    1
    43     6     7    1
