@<TRIPOS>MOLECULE
/tmp/ewbell/vina_1h22_1h22_lig/vina/vina1.pdbqt
 40 43 0 0 0
SMALL
GASTEIGER

@<TRIPOS>ATOM
      1  C24        4.1190   63.6310   69.0660 C.3   533  INH533      0.0000
      2  C23        5.0620   64.8360   69.0450 C.3   533  INH533      0.0000
      3  C22        5.0820   65.5210   67.7050 C.3   533  INH533      0.0020
      4  C21        3.8510   65.1940   66.8540 C.3   533  INH533      0.0270
      5  C10        4.0330   65.5340   65.3860 C.3   533  INH533      0.2330
      6  N2         2.8640   66.3940   64.9210 N.4   533  INH533     -0.0670
      7  H12        2.2340   66.4890   65.7000 H     533  INH533      0.2770
      8  H11        2.4050   65.8960   64.1730 H     533  INH533      0.2770
      9  C7         3.1700   67.8140   64.4040 C.3   533  INH533      0.2200
     10  C3         2.2820   68.0770   63.1700 C.ar  533  INH533     -0.0050
     11  C2         2.8220   68.3380   61.9150 C.ar  533  INH533      0.0200
     12  C4         0.8100   68.1020   63.3210 C.ar  533  INH533      0.0170
     13  N1         2.0070   68.5810   60.8760 N.ar  533  INH533     -0.3270
     14  C6         4.3440   68.4030   61.6360 C.3   533  INH533      0.0580
     15  C1         0.6330   68.6130   60.8830 C.ar  533  INH533      0.2450
     16  H1         2.4490   68.7600   59.9980 H     533  INH533      0.1690
     17  O1         0.0110   68.7980   59.8400 O.2   533  INH533     -0.2680
     18  C5        -0.0040   68.3600   62.2350 C.ar  533  INH533      0.0750
     19  C9         5.1260   67.5710   62.6650 C.3   533  INH533      0.0080
     20  C8         4.7070   67.9590   64.1250 C.3   533  INH533      0.0380
     21  C25        3.7860   63.2690   70.5190 C.3   533  INH533      0.0000
     22  C26        2.8340   62.0850   70.7750 C.3   533  INH533      0.0000
     23  C27        1.4200   62.1930   70.1560 C.3   533  INH533      0.0020
     24  C28        0.3920   62.6450   71.2260 C.3   533  INH533      0.0270
     25  C20        0.2010   64.1510   71.2800 C.3   533  INH533      0.2330
     26  N4         0.7610   64.7820   69.9890 N.4   533  INH533     -0.0670
     27  H26        1.7380   64.5400   69.9370 H     533  INH533      0.2770
     28  H25        0.2700   64.3640   69.2150 H     533  INH533      0.2770
     29  C17        0.6610   66.2900   69.8230 C.3   533  INH533      0.2200
     30  C13       -0.2230   66.7300   68.6070 C.ar  533  INH533     -0.0050
     31  C12        0.2900   67.6210   67.6570 C.ar  533  INH533      0.0200
     32  C14       -1.6070   66.2240   68.3950 C.ar  533  INH533      0.0170
     33  N3        -0.4730   68.0090   66.5960 N.ar  533  INH533     -0.3270
     34  C16        1.7120   68.2130   67.7180 C.3   533  INH533      0.0580
     35  C11       -1.7770   67.6280   66.3050 C.ar  533  INH533      0.2450
     36  H15       -0.0420   68.6430   65.9520 H     533  INH533      0.1690
     37  O2        -2.3820   68.1590   65.3530 O.2   533  INH533     -0.2680
     38  C15       -2.3830   66.6370   67.2960 C.ar  533  INH533      0.0750
     39  C19        2.3120   68.1300   69.1460 C.3   533  INH533      0.0080
     40  C18        2.1600   66.7300   69.6870 C.3   533  INH533      0.0380
@<TRIPOS>BOND
     1    17    15    2
     2    16    13    1
     3    13    15   ar
     4    13    11   ar
     5    15    18   ar
     6    14    11    1
     7    14    19    1
     8    11    10   ar
     9    18    12   ar
    10    19    20    1
    11    10    12   ar
    12    10     9    1
    13    20     9    1
    14     8     6    1
    15     9     6    1
    16     6     5    1
    17     6     7    1
    18    37    35    2
    19     5     4    1
    20    36    33    1
    21    35    33   ar
    22    35    38   ar
    23    33    31   ar
    24     4     3    1
    25    38    32   ar
    26    31    34    1
    27    31    30   ar
    28     3     2    1
    29    34    39    1
    30    32    30   ar
    31    30    29    1
    32     2     1    1
    33     1    21    1
    34    39    40    1
    35    28    26    1
    36    40    29    1
    37    29    26    1
    38    27    26    1
    39    26    25    1
    40    23    22    1
    41    23    24    1
    42    21    22    1
    43    24    25    1
