@<TRIPOS>MOLECULE
/tmp/ewbell/vina_1h22_1h22_lig/vina/vina4.pdbqt
 40 43 0 0 0
SMALL
GASTEIGER

@<TRIPOS>ATOM
      1  C24        4.0300   62.8580   70.3280 C.3   533  INH533      0.0000
      2  C23        3.0510   63.9730   69.9520 C.3   533  INH533      0.0000
      3  C22        3.6810   65.0070   69.0580 C.3   533  INH533      0.0020
      4  C21        3.2680   66.4360   69.4230 C.3   533  INH533      0.0270
      5  C10        2.6810   67.2050   68.2520 C.3   533  INH533      0.2330
      6  N2         3.6680   67.1820   67.0910 N.4   533  INH533     -0.0670
      7  H12        4.2240   66.3480   67.1870 H     533  INH533      0.2770
      8  H11        4.2580   67.9940   67.1830 H     533  INH533      0.2770
      9  C7         3.1000   67.1900   65.6580 C.3   533  INH533      0.2200
     10  C3         3.5610   65.8990   64.9510 C.ar  533  INH533     -0.0050
     11  C2         4.3560   65.9260   63.8100 C.ar  533  INH533      0.0200
     12  C4         3.1130   64.5850   65.4640 C.ar  533  INH533      0.0170
     13  N1         4.7140   64.7750   63.2200 N.ar  533  INH533     -0.3270
     14  C6         4.8390   67.2350   63.1360 C.3   533  INH533      0.0580
     15  C1         4.3820   63.5000   63.6080 C.ar  533  INH533      0.2450
     16  H1         5.2880   64.8540   62.4050 H     533  INH533      0.1690
     17  O1         4.8260   62.5290   62.9990 O.2   533  INH533     -0.2680
     18  C5         3.4940   63.4170   64.8330 C.ar  533  INH533      0.0750
     19  C9         4.8900   68.3870   64.1520 C.3   533  INH533      0.0080
     20  C8         3.5310   68.5070   64.9230 C.3   533  INH533      0.0380
     21  C25        3.7220   61.6070   69.4930 C.3   533  INH533      0.0000
     22  C26        4.1560   60.2380   70.0490 C.3   533  INH533      0.0000
     23  C27        3.0880   59.1180   70.0280 C.3   533  INH533      0.0020
     24  C28        3.5660   57.8960   70.8570 C.3   533  INH533      0.0270
     25  C20        2.5190   57.3810   71.8290 C.3   533  INH533      0.2330
     26  N4         2.1060   58.5190   72.7840 N.4   533  INH533     -0.0670
     27  H26        2.3640   58.2350   73.7170 H     533  INH533      0.2770
     28  H25        2.6360   59.3350   72.5230 H     533  INH533      0.2770
     29  C17        0.6420   58.9270   72.8280 C.3   533  INH533      0.2200
     30  C13        0.4260   60.4660   73.0230 C.ar  533  INH533     -0.0050
     31  C12       -0.4040   60.9300   74.0500 C.ar  533  INH533      0.0200
     32  C14        1.0890   61.4850   72.1630 C.ar  533  INH533      0.0170
     33  N3        -0.5970   62.2680   74.2260 N.ar  533  INH533     -0.3270
     34  C16       -1.1380   60.0060   75.0400 C.3   533  INH533      0.0580
     35  C11       -0.0580   63.3090   73.4790 C.ar  533  INH533      0.2450
     36  H15       -1.1980   62.5310   74.9820 H     533  INH533      0.1690
     37  O2        -0.4200   64.4820   73.6960 O.2   533  INH533     -0.2680
     38  C15        0.8770   62.8630   72.3560 C.ar  533  INH533      0.0750
     39  C19       -1.2710   58.5600   74.4930 C.3   533  INH533      0.0080
     40  C18        0.0720   58.0690   74.0090 C.3   533  INH533      0.0380
@<TRIPOS>BOND
     1    16    13    1
     2    17    15    2
     3    14    11    1
     4    14    19    1
     5    13    15   ar
     6    13    11   ar
     7    15    18   ar
     8    11    10   ar
     9    19    20    1
    10    18    12   ar
    11    20     9    1
    12    10    12   ar
    13    10     9    1
    14     9     6    1
    15     6     8    1
    16     6     7    1
    17     6     5    1
    18     5     4    1
    19     3     4    1
    20     3     2    1
    21    21    22    1
    22    21     1    1
    23     2     1    1
    24    23    22    1
    25    23    24    1
    26    24    25    1
    27    25    26    1
    28    32    38   ar
    29    32    30   ar
    30    38    35   ar
    31    28    26    1
    32    26    29    1
    33    26    27    1
    34    29    30    1
    35    29    40    1
    36    30    31   ar
    37    35    37    2
    38    35    33   ar
    39    40    39    1
    40    31    33   ar
    41    31    34    1
    42    33    36    1
    43    39    34    1
