@<TRIPOS>MOLECULE
/tmp/ewbell/vina_1h22_1h22_lig/vina/vina5.pdbqt
 40 43 0 0 0
SMALL
GASTEIGER

@<TRIPOS>ATOM
      1  C24        0.3170   64.3120   70.2760 C.3   533  INH533      0.0000
      2  C23        0.2750   65.7860   69.8670 C.3   533  INH533      0.0000
      3  C22       -0.6890   66.0380   68.7390 C.3   533  INH533      0.0020
      4  C21       -0.5280   67.4310   68.1220 C.3   533  INH533      0.0270
      5  C10       -0.1010   67.3930   66.6660 C.3   533  INH533      0.2330
      6  N2         1.2120   66.6300   66.5480 N.4   533  INH533     -0.0670
      7  H12        1.1560   66.0650   65.7160 H     533  INH533      0.2770
      8  H11        1.2860   66.0330   67.3570 H     533  INH533      0.2770
      9  C7         2.5180   67.4440   66.4600 C.3   533  INH533      0.2200
     10  C3         3.0190   67.3930   65.0020 C.ar  533  INH533     -0.0050
     11  C2         4.2490   66.8390   64.6620 C.ar  533  INH533      0.0200
     12  C4         2.1970   67.9920   63.9260 C.ar  533  INH533      0.0170
     13  N1         4.6480   66.8380   63.3810 N.ar  533  INH533     -0.3270
     14  C6         5.2300   66.2380   65.6990 C.3   533  INH533      0.0580
     15  C1         3.9720   67.3410   62.2950 C.ar  533  INH533      0.2450
     16  H1         5.5390   66.4240   63.1940 H     533  INH533      0.1690
     17  O1         4.4370   67.2240   61.1640 O.2   533  INH533     -0.2680
     18  C5         2.6360   67.9800   62.6170 C.ar  533  INH533      0.0750
     19  C9         4.4790   65.7660   66.9540 C.3   533  INH533      0.0080
     20  C8         3.5530   66.9030   67.5070 C.3   533  INH533      0.0380
     21  C25        1.7160   63.9700   70.8090 C.3   533  INH533      0.0000
     22  C26        2.9170   64.1430   69.8610 C.3   533  INH533      0.0000
     23  C27        3.9630   63.0020   69.8610 C.3   533  INH533      0.0020
     24  C28        3.3030   61.6590   70.2680 C.3   533  INH533      0.0270
     25  C20        4.1970   60.7840   71.1280 C.3   533  INH533      0.2330
     26  N4         3.3770   60.2160   72.3040 N.4   533  INH533     -0.0670
     27  H26        4.0110   59.6890   72.8840 H     533  INH533      0.2770
     28  H25        3.0190   61.0010   72.8240 H     533  INH533      0.2770
     29  C17        2.1980   59.3100   71.9880 C.3   533  INH533      0.2200
     30  C13        0.8320   59.8410   72.5420 C.ar  533  INH533     -0.0050
     31  C12        0.0290   59.0110   73.3320 C.ar  533  INH533      0.0200
     32  C14        0.3420   61.2230   72.2800 C.ar  533  INH533      0.0170
     33  N3        -1.1610   59.4660   73.8180 N.ar  533  INH533     -0.3270
     34  C16        0.4070   57.5680   73.7160 C.3   533  INH533      0.0580
     35  C11       -1.7340   60.7180   73.6240 C.ar  533  INH533      0.2450
     36  H15       -1.6820   58.8230   74.3810 H     533  INH533      0.1690
     37  O2        -2.8850   60.9450   74.0430 O.2   533  INH533     -0.2680
     38  C15       -0.8900   61.6760   72.7860 C.ar  533  INH533      0.0750
     39  C19        1.4760   56.9760   72.7600 C.3   533  INH533      0.0080
     40  C18        2.6270   57.9400   72.6160 C.3   533  INH533      0.0380
@<TRIPOS>BOND
     1    17    15    2
     2    15    18   ar
     3    15    13   ar
     4    18    12   ar
     5    16    13    1
     6    13    11   ar
     7    12    10   ar
     8    11    10   ar
     9    11    14    1
    10    10     9    1
    11    14    19    1
    12     7     6    1
    13     9     6    1
    14     9    20    1
    15     6     5    1
    16     6     8    1
    17     5     4    1
    18    19    20    1
    19     4     3    1
    20     3     2    1
    21    22    23    1
    22    22    21    1
    23    23    24    1
    24     2     1    1
    25    24    25    1
    26     1    21    1
    27    25    26    1
    28    29    26    1
    29    29    30    1
    30    29    40    1
    31    32    30   ar
    32    32    38   ar
    33    26    28    1
    34    26    27    1
    35    30    31   ar
    36    40    39    1
    37    39    34    1
    38    38    35   ar
    39    31    34    1
    40    31    33   ar
    41    35    33   ar
    42    35    37    2
    43    33    36    1
