@<TRIPOS>MOLECULE
./ligand/1nli_lig.pdb
 15 16 0 0 0
SMALL
GASTEIGER

@<TRIPOS>ATOM
      1  N1         4.5680   32.5340   -0.2290 N.2   251  INH251     -0.2375
      2  C1         3.2820   32.6900   -0.6910 C.3   251  INH251      0.1549
      3  N2         2.8070   33.9300   -0.6340 N.pl3 251  INH251     -0.3142
      4  C2         3.8740   34.6390   -0.0940 C.ar  251  INH251      0.1133
      5  C3         4.0330   36.0070    0.1700 C.ar  251  INH251      0.1426
      6  N3         2.9950   36.8490   -0.0290 N.pl3 251  INH251     -0.3415
      7  N4         5.2400   36.4250    0.6620 N.ar  251  INH251     -0.2191
      8  C4         6.1810   35.4860    0.8660 C.ar  251  INH251      0.1205
      9  N5         6.1060   34.1520    0.6520 N.ar  251  INH251     -0.2149
     10  C5         4.9520   33.7900    0.1580 C.ar  251  INH251      0.1761
     11  H1         2.6950   31.8570   -1.0760 H     251  INH251      0.0791
     12  H2         1.8800   34.2780   -0.9190 H     251  INH251      0.1484
     13  H3         3.1040   37.8550    0.1630 H     251  INH251      0.1438
     14  H4         2.0950   36.4850   -0.3720 H     251  INH251      0.1438
     15  H5         7.1270   35.8460    1.2540 H     251  INH251      0.1048
@<TRIPOS>BOND
     1     1    10    2
     2     1     2    1
     3     2    11    1
     4     2     3    1
     5     3    12    1
     6     3     4    1
     7     4    10   ar
     8     4     5   ar
     9     5     7   ar
    10     5     6    1
    11     6    14    1
    12     6    13    1
    13     7     8   ar
    14     8    15    1
    15     8     9   ar
    16     9    10   ar
