@<TRIPOS>MOLECULE
/tmp/ewbell/vina_1nli_1nli_lig/vina/vina1.pdbqt
 16 17 0 0 0
SMALL
GASTEIGER

@<TRIPOS>ATOM
      1  N1         2.6780   32.8510   -0.4170 N.pl3 251  INH251     -0.3580
      2  H1         1.8090   33.3480   -0.6070 H     251  INH251      0.1620
      3  C1         3.9630   33.3230   -0.5510 C.3   251  INH251      0.2450
      4  N2         4.9200   32.4580   -0.2300 N.pl3 251  INH251     -0.3680
      5  C2         4.1970   31.3290    0.1390 C.2   251  INH251      0.1170
      6  C3         4.6190   30.0510    0.5310 C.3   251  INH251      0.1300
      7  N4         3.6570   29.1110    0.7850 N.3   251  INH251     -0.3370
      8  H4         3.9020   28.1630    1.0660 H     251  INH251      0.1680
      9  C4         2.3740   29.4910    0.6490 C.3   251  INH251      0.1830
     10  N5         1.8820   30.7000    0.2900 N.pl3 251  INH251     -0.3370
     11  C5         2.8260   31.5650    0.0290 C.2   251  INH251      0.1340
     12  H2         5.9410   32.5910   -0.2510 H     251  INH251      0.1610
     13  H          0.9210   30.9050    0.2320 H     251  INH251      0.1680
     14  N3         5.9390   29.8020    0.6820 N.3   251  INH251     -0.3830
     15  H4         6.4330   29.2100   -0.0000 H     251  INH251      0.1570
     16  H3         6.4510   30.2070    1.4780 H     251  INH251      0.1570
@<TRIPOS>BOND
     1     2     1    1
     2     3     1    1
     3     3     4    1
     4     1    11    1
     5    12     4    1
     6     4     5    1
     7    15    14    1
     8    11     5    2
     9    11    10    1
    10     5     6    1
    11    13    10    1
    12    10     9    1
    13     6    14    1
    14     6     7    1
    15     9     7    1
    16    14    16    1
    17     7     8    1
