@<TRIPOS>MOLECULE
/tmp/ewbell/vina_1nli_1nli_lig/vina/vina4.pdbqt
 16 17 0 0 0
SMALL
GASTEIGER

@<TRIPOS>ATOM
      1  N1         1.8480   31.6290    0.2450 N.pl3 251  INH251     -0.3580
      2  H1         1.7040   32.6290    0.1020 H     251  INH251      0.1620
      3  C1         0.8880   30.6510    0.3640 C.3   251  INH251      0.2450
      4  N2         1.3550   29.4200    0.5450 N.pl3 251  INH251     -0.3680
      5  C2         2.7320   29.6150    0.5480 C.2   251  INH251      0.1170
      6  C3         3.7900   28.7170    0.7500 C.3   251  INH251      0.1300
      7  N4         5.0630   29.2220    0.7500 N.3   251  INH251     -0.3370
      8  H4         5.8720   28.6200    0.8990 H     251  INH251      0.1680
      9  C4         5.2010   30.5440    0.5450 C.3   251  INH251      0.1830
     10  N5         4.2410   31.4730    0.3300 N.pl3 251  INH251     -0.3370
     11  C5         3.0380   30.9630    0.3630 C.2   251  INH251      0.1340
     12  H2         0.8290   28.5410    0.6550 H     251  INH251      0.1610
     13  H          4.4280   32.4260    0.1680 H     251  INH251      0.1680
     14  N3         3.5280   27.4000    0.8950 N.3   251  INH251     -0.3830
     15  H4         4.0310   26.7080    0.3220 H     251  INH251      0.1570
     16  H3         2.8240   27.0880    1.5800 H     251  INH251      0.1570
@<TRIPOS>BOND
     1     2     1    1
     2    13    10    1
     3     1    11    1
     4     1     3    1
     5    15    14    1
     6    10    11    1
     7    10     9    1
     8    11     5    2
     9     3     4    1
    10     4     5    1
    11     4    12    1
    12     9     7    1
    13     5     6    1
    14     6     7    1
    15     6    14    1
    16     7     8    1
    17    14    16    1
