@<TRIPOS>MOLECULE
/tmp/ewbell/vina_1nli_1nli_lig/vina/vina2.pdbqt
 16 17 0 0 0
SMALL
GASTEIGER

@<TRIPOS>ATOM
      1  N1         1.7340   28.5240    0.6900 N.pl3 251  INH251     -0.3580
      2  H1         0.7180   28.5190    0.6120 H     251  INH251      0.1620
      3  C1         2.5590   27.4700    1.0070 C.3   251  INH251      0.2450
      4  N2         3.8560   27.7560    1.0390 N.pl3 251  INH251     -0.3680
      5  C2         3.8770   29.1090    0.7200 C.2   251  INH251      0.1170
      6  C3         4.9380   30.0220    0.6390 C.3   251  INH251      0.1300
      7  N4         4.6370   31.3250    0.3500 N.3   251  INH251     -0.3370
      8  H4         5.3650   32.0360    0.2860 H     251  INH251      0.1680
      9  C4         3.3420   31.6300    0.1530 C.3   251  INH251      0.1830
     10  N5         2.2640   30.8130    0.1990 N.pl3 251  INH251     -0.3370
     11  C5         2.5830   29.5830    0.5030 C.2   251  INH251      0.1340
     12  H2         4.6480   27.1310    1.2480 H     251  INH251      0.1610
     13  H          1.3430   31.1120    0.0220 H     251  INH251      0.1680
     14  N3         6.2060   29.5860    0.8080 N.3   251  INH251     -0.3830
     15  H4         6.5640   29.3960    1.7550 H     251  INH251      0.1570
     16  H3         6.8140   29.4430   -0.0110 H     251  INH251      0.1570
@<TRIPOS>BOND
     1    16    14    1
     2    13    10    1
     3     9    10    1
     4     9     7    1
     5    10    11    1
     6     8     7    1
     7     7     6    1
     8    11     1    1
     9    11     5    2
    10     2     1    1
    11     6     5    1
    12     6    14    1
    13     1     3    1
    14     5     4    1
    15    14    15    1
    16     3     4    1
    17     4    12    1
