@<TRIPOS>MOLECULE
/tmp/ewbell/vina_1nli_1nli_lig/vina/vina3.pdbqt
 16 17 0 0 0
SMALL
GASTEIGER

@<TRIPOS>ATOM
      1  N1         4.3480   27.0160    2.7100 N.pl3 251  INH251     -0.3580
      2  H1         4.5000   26.0850    3.0980 H     251  INH251      0.1620
      3  C1         4.9990   28.1800    3.0430 C.3   251  INH251      0.2450
      4  N2         4.6030   29.2600    2.3770 N.pl3 251  INH251     -0.3680
      5  C2         3.6090   28.7560    1.5460 C.2   251  INH251      0.1170
      6  C3         2.7590   29.3950    0.6320 C.3   251  INH251      0.1300
      7  N4         1.8260   28.6290   -0.0140 N.3   251  INH251     -0.3370
      8  H4         1.1750   29.0390   -0.6830 H     251  INH251      0.1680
      9  C4         1.8020   27.3150    0.2720 C.3   251  INH251      0.1830
     10  N5         2.5900   26.6200    1.1250 N.pl3 251  INH251     -0.3370
     11  C5         3.4510   27.3840    1.7430 C.2   251  INH251      0.1340
     12  H2         4.9460   30.2280    2.4570 H     251  INH251      0.1610
     13  H          2.5220   25.6480    1.2640 H     251  INH251      0.1680
     14  N3         2.9120   30.7160    0.3910 N.3   251  INH251     -0.3830
     15  H4         3.8050   31.0730    0.0230 H     251  INH251      0.1570
     16  H3         2.1340   31.3660    0.5750 H     251  INH251      0.1570
@<TRIPOS>BOND
     1     8     7    1
     2     7     9    1
     3     7     6    1
     4    15    14    1
     5     9    10    1
     6    14    16    1
     7    14     6    1
     8     6     5    1
     9    10    13    1
    10    10    11    1
    11     5    11    2
    12     5     4    1
    13    11     1    1
    14     4    12    1
    15     4     3    1
    16     1     3    1
    17     1     2    1
