@<TRIPOS>MOLECULE
/tmp/ewbell/vina_1nli_1nli_lig/vina/vina5.pdbqt
 16 17 0 0 0
SMALL
GASTEIGER

@<TRIPOS>ATOM
      1  N1         4.5120   31.5320    0.3770 N.pl3 251  INH251     -0.3580
      2  H1         4.5510   32.5430    0.2490 H     251  INH251      0.1620
      3  C1         5.5660   30.6700    0.5740 C.3   251  INH251      0.2450
      4  N2         5.2320   29.3910    0.7140 N.pl3 251  INH251     -0.3680
      5  C2         3.8470   29.4250    0.5940 C.2   251  INH251      0.1170
      6  C3         2.8960   28.3950    0.5960 C.3   251  INH251      0.1300
      7  N4         1.5850   28.7370    0.4000 N.3   251  INH251     -0.3370
      8  H4         0.8490   28.0310    0.3830 H     251  INH251      0.1680
      9  C4         1.3080   30.0420    0.2300 C.3   251  INH251      0.1830
     10  N5         2.1580   31.0950    0.2280 N.pl3 251  INH251     -0.3370
     11  C5         3.4020   30.7320    0.3910 C.2   251  INH251      0.1340
     12  H2         5.8460   28.5790    0.8720 H     251  INH251      0.1610
     13  H          1.8710   32.0300    0.1160 H     251  INH251      0.1680
     14  N3         3.2910   27.1230    0.8270 N.3   251  INH251     -0.3830
     15  H4         2.8050   26.3410    0.3680 H     251  INH251      0.1570
     16  H3         4.0800   26.9370    1.4630 H     251  INH251      0.1570
@<TRIPOS>BOND
     1    13    10    1
     2    10     9    1
     3    10    11    1
     4     9     7    1
     5     2     1    1
     6    15    14    1
     7     1    11    1
     8     1     3    1
     9     8     7    1
    10    11     5    2
    11     7     6    1
    12     3     4    1
    13     5     6    1
    14     5     4    1
    15     6    14    1
    16     4    12    1
    17    14    16    1
