@<TRIPOS>MOLECULE
./ligand/2j34_lig.pdb
 52 55 0 0 0
SMALL
GASTEIGER

@<TRIPOS>ATOM
      1 Cl1        13.7680    7.3080   26.6650 Cl    292  INH292     -0.0835
      2  C1        12.0620    7.5350   26.3870 C.ar  292  INH292      0.0421
      3  C2        11.6350    8.1390   25.1910 C.ar  292  INH292     -0.0290
      4  C3        10.2390    8.3210   24.9260 C.ar  292  INH292      0.0226
      5  C4         9.3090    7.8670   25.8950 C.ar  292  INH292     -0.0088
      6  C5         7.9530    8.1060   25.5240 C.ar  292  INH292     -0.0203
      7  C6         9.7370    7.2670   27.1030 C.ar  292  INH292     -0.0521
      8  C7        11.1190    7.0970   27.3590 C.ar  292  INH292     -0.0428
      9  C8         7.9630    8.7240   24.2400 C.ar  292  INH292      0.1436
     10  S1         6.4580    9.1250   23.4830 S.O2  292  INH292      0.0654
     11  O1         5.4740    9.1170   24.5050 O.2   292  INH292     -0.1525
     12  O2         6.5920   10.3140   22.6940 O.2   292  INH292     -0.1525
     13  N1         6.0530    8.0100   22.3610 N.3   292  INH292     -0.1775
     14  C9         6.1290    6.5490   22.5640 C.3   292  INH292      0.1064
     15  C10        4.7840    5.8390   22.3370 C.3   292  INH292     -0.0116
     16  C11        5.1260    4.5170   21.6280 C.3   292  INH292      0.0174
     17  C12        7.1340    5.7510   21.7220 C.2   292  INH292      0.2349
     18  O3         8.2730    6.1080   21.4510 O.2   292  INH292     -0.2738
     19  N2         6.5620    4.5870   21.3350 N.am  292  INH292     -0.2888
     20  C13        7.3350    3.4890   20.6800 C.3   292  INH292      0.0996
     21  C14        7.0070    2.0910   21.2540 C.3   292  INH292     -0.0379
     22  C15        7.1130    3.4600   19.1730 C.2   292  INH292      0.2360
     23  O4         6.1400    4.0560   18.7300 O.2   292  INH292     -0.2736
     24  N3         8.0040    2.7860   18.3790 N.am  292  INH292     -0.2956
     25  C16        7.7220    2.7270   16.9360 C.3   292  INH292      0.0382
     26  C17        8.9900    2.7460   16.0710 C.3   292  INH292      0.0635
     27  O5         9.9140    1.7640   16.5410 O.3   292  INH292     -0.3767
     28  C18       10.3830    2.0710   17.8490 C.3   292  INH292      0.0635
     29  C19        9.2290    2.0910   18.8520 C.3   292  INH292      0.0382
     30  S2         9.5280    9.0060   23.5500 S.2   292  INH292     -0.0685
     31  H1        12.3680    8.4690   24.4640 H     292  INH292      0.0643
     32  H2         7.0710    7.8610   26.1140 H     292  INH292      0.0649
     33  H3         9.0060    6.9370   27.8330 H     292  INH292      0.0624
     34  H4        11.4540    6.6400   28.2830 H     292  INH292      0.0632
     35  H5         5.7310    8.3400   21.4740 H     292  INH292      0.1489
     36  H6         6.4130    6.4140   23.6180 H     292  INH292      0.0573
     37  H7         4.1270    6.4550   21.7050 H     292  INH292      0.0301
     38  H8         4.2870    5.6410   23.2980 H     292  INH292      0.0301
     39  H9         4.5480    4.4200   20.6970 H     292  INH292      0.0465
     40  H10        4.9090    3.6620   22.2850 H     292  INH292      0.0465
     41  H11        8.4010    3.6870   20.8640 H     292  INH292      0.0594
     42  H12        7.6060    1.3310   20.7320 H     292  INH292      0.0252
     43  H13        5.9380    1.8770   21.1100 H     292  INH292      0.0252
     44  H14        7.2440    2.0710   22.3280 H     292  INH292      0.0252
     45  H15        7.1010    3.5940   16.6650 H     292  INH292      0.0487
     46  H16        7.1690    1.8000   16.7250 H     292  INH292      0.0487
     47  H17        9.4550    3.7410   16.1280 H     292  INH292      0.0575
     48  H18        8.7230    2.5250   15.0270 H     292  INH292      0.0575
     49  H19       10.8660    3.0590   17.8360 H     292  INH292      0.0575
     50  H20       11.1150    1.3100   18.1570 H     292  INH292      0.0575
     51  H21        8.9620    1.0500   19.0880 H     292  INH292      0.0487
     52  H22        9.5780    2.5960   19.7650 H     292  INH292      0.0487
@<TRIPOS>BOND
     1     1     2    1
     2     2     8   ar
     3     2     3   ar
     4     3    31    1
     5     3     4   ar
     6     4    30   ar
     7     4     5   ar
     8     5     7   ar
     9     5     6   ar
    10     6    32    1
    11     6     9   ar
    12     7    33    1
    13     7     8   ar
    14     8    34    1
    15     9    30   ar
    16     9    10    1
    17    10    13    1
    18    10    12    2
    19    10    11    2
    20    13    35    1
    21    13    14    1
    22    14    36    1
    23    14    17    1
    24    14    15    1
    25    15    38    1
    26    15    37    1
    27    15    16    1
    28    16    40    1
    29    16    39    1
    30    16    19    1
    31    17    19   am
    32    17    18    2
    33    19    20    1
    34    20    41    1
    35    20    22    1
    36    20    21    1
    37    21    44    1
    38    21    43    1
    39    21    42    1
    40    22    24   am
    41    22    23    2
    42    24    29    1
    43    24    25    1
    44    25    46    1
    45    25    45    1
    46    25    26    1
    47    26    48    1
    48    26    47    1
    49    26    27    1
    50    27    28    1
    51    28    50    1
    52    28    49    1
    53    28    29    1
    54    29    52    1
    55    29    51    1
