@<TRIPOS>MOLECULE
/tmp/ewbell/vina_2j34_2j34_lig/vina/vina5.pdbqt
 31 34 0 0 0
SMALL
GASTEIGER

@<TRIPOS>ATOM
      1  C9         6.8610   12.3060   20.1330 C.3   292  INH292      0.1860
      2  C10        5.7080   11.6830   19.3290 C.3   292  INH292      0.0550
      3  C11        4.9620   12.8650   18.6870 C.3   292  INH292      0.1290
      4  C12        6.5480   13.8080   20.1560 C.2   292  INH292      0.2440
      5  O3         7.0960   14.6360   20.8730 O.2   292  INH292     -0.2710
      6  N2         5.5750   14.0720   19.2520 N.am  292  INH292     -0.3370
      7  N1         7.1020   11.6230   21.4210 N.3   292  INH292     -0.3010
      8  H5         7.4800   12.1650   22.1710 H     292  INH292      0.1730
      9  S1         6.7950   10.0450   21.7060 S.O2  292  INH292      0.2660
     10  O2         5.4230   10.0740   22.1210 O.2   292  INH292     -0.2000
     11  O1         7.1180    9.3040   20.5410 O.2   292  INH292     -0.2000
     12  C8         7.8020    9.4380   22.9770 C.ar  292  INH292      0.1210
     13  C5         9.2190    9.4980   22.8310 C.ar  292  INH292      0.0450
     14  C4         9.7950    8.9610   24.0190 C.ar  292  INH292     -0.0170
     15  C3         8.8280    8.5150   24.9540 C.ar  292  INH292      0.0180
     16  C6        11.1820    8.8380   24.2770 C.ar  292  INH292      0.0140
     17  C2         9.2890    7.9510   26.1880 C.ar  292  INH292      0.0430
     18  S2         7.2250    8.7540   24.4620 S.2   292  INH292     -0.0760
     19  C1        10.6650    7.8360   26.4500 C.ar  292  INH292      0.0350
     20 Cl1        11.1900    7.1660   27.9710 Cl    292  INH292     -0.0840
     21  C7        11.6280    8.2730   25.4960 C.ar  292  INH292      0.0240
     22  C13        5.1830   15.4630   18.8750 C.3   292  INH292      0.1750
     23  C14        4.9700   15.6410   17.3540 C.3   292  INH292      0.0420
     24  C15        3.9200   15.9120   19.5980 C.2   292  INH292      0.2420
     25  N3         3.9840   16.9790   20.4560 N.am  292  INH292     -0.3460
     26  C19        2.8470   17.5280   21.2400 C.3   292  INH292      0.1520
     27  C16        5.2910   17.6320   20.6350 C.3   292  INH292      0.1520
     28  C18        2.9180   19.0310   21.5070 C.3   292  INH292      0.1870
     29  O5         4.2330   19.4170   21.8930 O.3   292  INH292     -0.3880
     30  C17        5.1830   19.1470   20.8630 C.3   292  INH292      0.1870
     31  O4         2.8890   15.2870   19.3840 O.2   292  INH292     -0.2710
@<TRIPOS>BOND
     1    23    22    1
     2     3     6    1
     3     3     2    1
     4    22     6    1
     5    22    24    1
     6     6     4   am
     7     2     1    1
     8    31    24    2
     9    24    25   am
    10     1     4    1
    11     1     7    1
    12     4     5    2
    13    25    27    1
    14    25    26    1
    15    11     9    2
    16    27    30    1
    17    30    29    1
    18    26    28    1
    19     7     9    1
    20     7     8    1
    21    28    29    1
    22     9    10    2
    23     9    12    1
    24    13    12   ar
    25    13    14   ar
    26    12    18   ar
    27    14    16   ar
    28    14    15   ar
    29    16    21   ar
    30    18    15   ar
    31    15    17   ar
    32    21    19   ar
    33    17    19   ar
    34    19    20    1
