@<TRIPOS>MOLECULE
/tmp/ewbell/vina_2j34_2j34_lig/vina/vina1.pdbqt
 31 34 0 0 0
SMALL
GASTEIGER

@<TRIPOS>ATOM
      1  C9         6.2200    6.8100   22.2690 C.3   292  INH292      0.1860
      2  C10        4.7620    6.3210   22.2490 C.3   292  INH292      0.0550
      3  C11        4.7950    4.9410   21.5690 C.3   292  INH292      0.1290
      4  C12        6.9660    5.8360   21.3470 C.2   292  INH292      0.2440
      5  O3         8.1010    5.9960   20.9170 O.2   292  INH292     -0.2710
      6  N2         6.1730    4.7690   21.0940 N.am  292  INH292     -0.3370
      7  N1         6.3470    8.2570   22.0050 N.3   292  INH292     -0.3010
      8  H5         6.2110    8.5730   21.0660 H     292  INH292      0.1730
      9  S1         6.6970    9.3800   23.1380 S.O2  292  INH292      0.2660
     10  O2         6.9230   10.5520   22.3440 O.2   292  INH292     -0.2000
     11  O1         5.6380    9.4150   24.0810 O.2   292  INH292     -0.2000
     12  C8         8.1280    8.9520   24.0140 C.ar  292  INH292      0.1210
     13  C5         8.0080    8.4720   25.3500 C.ar  292  INH292      0.0450
     14  C4         9.3220    8.1750   25.8180 C.ar  292  INH292     -0.0170
     15  C3        10.3300    8.4580   24.8620 C.ar  292  INH292      0.0180
     16  C6         9.6440    7.6750   27.1020 C.ar  292  INH292      0.0140
     17  C2        11.6930    8.2030   25.2210 C.ar  292  INH292      0.0430
     18  S2         9.7410    9.0460   23.3870 S.2   292  INH292     -0.0760
     19  C1        12.0140    7.6970   26.4920 C.ar  292  INH292      0.0350
     20 Cl1        13.6820    7.3770   26.8860 Cl    292  INH292     -0.0840
     21  C7        10.9950    7.4320   27.4500 C.ar  292  INH292      0.0240
     22  C13        6.6700    3.5420   20.4010 C.3   292  INH292      0.1750
     23  C14        5.8290    2.2840   20.7190 C.3   292  INH292      0.0420
     24  C15        6.7200    3.7240   18.8900 C.2   292  INH292      0.2420
     25  N3         7.8700    3.4090   18.2160 N.am  292  INH292     -0.3460
     26  C19        8.0770    3.5410   16.7500 C.3   292  INH292      0.1520
     27  C16        9.0080    2.9120   19.0050 C.3   292  INH292      0.1520
     28  C18        9.0380    2.5180   16.1430 C.3   292  INH292      0.1870
     29  O5        10.1920    2.3580   16.9600 O.3   292  INH292     -0.3880
     30  C17        9.8520    1.8690   18.2580 C.3   292  INH292      0.1870
     31  O4         5.7180    4.1590   18.3360 O.2   292  INH292     -0.2710
@<TRIPOS>BOND
     1    28    26    1
     2    28    29    1
     3    26    25    1
     4    29    30    1
     5    25    24   am
     6    25    27    1
     7    30    27    1
     8    31    24    2
     9    24    22    1
    10    22    23    1
    11    22     6    1
    12     5     4    2
    13     8     7    1
    14     6     4   am
    15     6     3    1
    16     4     1    1
    17     3     2    1
    18     7     1    1
    19     7     9    1
    20     2     1    1
    21    10     9    2
    22     9    12    1
    23     9    11    2
    24    18    12   ar
    25    18    15   ar
    26    12    13   ar
    27    15    17   ar
    28    15    14   ar
    29    17    19   ar
    30    13    14   ar
    31    14    16   ar
    32    19    20    1
    33    19    21   ar
    34    16    21   ar
