@<TRIPOS>MOLECULE
/tmp/ewbell/vina_2j34_2j34_lig/vina/vina2.pdbqt
 31 34 0 0 0
SMALL
GASTEIGER

@<TRIPOS>ATOM
      1  C9         6.2220    8.0450   18.8140 C.3   292  INH292      0.1860
      2  C10        5.1980    9.1810   18.9770 C.3   292  INH292      0.0550
      3  C11        5.7530   10.0850   20.0910 C.3   292  INH292      0.1290
      4  C12        7.1520    8.1870   20.0270 C.2   292  INH292      0.2440
      5  O3         7.9690    7.3530   20.3940 O.2   292  INH292     -0.2710
      6  N2         6.9290    9.3830   20.6190 N.am  292  INH292     -0.3370
      7  N1         5.5940    6.7310   18.5660 N.3   292  INH292     -0.3010
      8  H5         5.1350    6.2830   19.3320 H     292  INH292      0.1730
      9  S1         5.5970    5.9590   17.1270 S.O2  292  INH292      0.2660
     10  O2         4.2260    5.5600   16.9950 O.2   292  INH292     -0.2000
     11  O1         6.1280    6.8330   16.1450 O.2   292  INH292     -0.2000
     12  C8         6.6330    4.5720   17.1710 C.ar  292  INH292      0.1210
     13  C5         7.7770    4.5850   18.0200 C.ar  292  INH292      0.0450
     14  C4         8.4290    3.3250   17.8800 C.ar  292  INH292     -0.0170
     15  C3         7.7870    2.4670   16.9520 C.ar  292  INH292      0.0180
     16  C6         9.6100    2.9310   18.5540 C.ar  292  INH292      0.0140
     17  C2         8.3550    1.1710   16.7240 C.ar  292  INH292      0.0430
     18  S2         6.3880    3.1200   16.2560 S.2   292  INH292     -0.0760
     19  C1         9.5220    0.7740   17.3990 C.ar  292  INH292      0.0350
     20 Cl1        10.1710   -0.8180   17.1150 Cl    292  INH292     -0.0840
     21  C7        10.1670    1.6510   18.3180 C.ar  292  INH292      0.0240
     22  C13        7.8080    9.9230   21.6990 C.3   292  INH292      0.1750
     23  C14        7.8470   11.4690   21.7330 C.3   292  INH292      0.0420
     24  C15        7.3920    9.4180   23.0750 C.2   292  INH292      0.2420
     25  N3         8.3220    8.8000   23.8690 N.am  292  INH292     -0.3460
     26  C19        8.0680    8.2460   25.2250 C.3   292  INH292      0.1520
     27  C16        9.6850    8.6520   23.3350 C.3   292  INH292      0.1520
     28  C18        9.2680    8.2940   26.1710 C.3   292  INH292      0.1870
     29  O5        10.4580    7.8880   25.5040 O.3   292  INH292     -0.3880
     30  C17       10.7710    8.7560   24.4150 C.3   292  INH292      0.1870
     31  O4         6.2260    9.5820   23.4120 O.2   292  INH292     -0.2710
@<TRIPOS>BOND
     1    11     9    2
     2    18    15   ar
     3    18    12   ar
     4    17    15   ar
     5    17    19   ar
     6    15    14   ar
     7    10     9    2
     8    20    19    1
     9     9    12    1
    10     9     7    1
    11    12    13   ar
    12    19    21   ar
    13    14    13   ar
    14    14    16   ar
    15    21    16   ar
    16     7     1    1
    17     7     8    1
    18     1     2    1
    19     1     4    1
    20     2     3    1
    21     4     5    2
    22     4     6   am
    23     3     6    1
    24     6    22    1
    25    22    23    1
    26    22    24    1
    27    24    31    2
    28    24    25   am
    29    27    25    1
    30    27    30    1
    31    25    26    1
    32    30    29    1
    33    26    28    1
    34    29    28    1
