@<TRIPOS>MOLECULE
/tmp/ewbell/vina_2j34_2j34_lig/vina/vina4.pdbqt
 31 34 0 0 0
SMALL
GASTEIGER

@<TRIPOS>ATOM
      1  C9         3.2110    4.5550   22.7770 C.3   292  INH292      0.1860
      2  C10        2.4450    5.1050   23.9910 C.3   292  INH292      0.0550
      3  C11        2.9990    6.5210   24.2260 C.3   292  INH292      0.1290
      4  C12        4.3580    5.5510   22.5600 C.2   292  INH292      0.2440
      5  O3         5.3260    5.3700   21.8330 O.2   292  INH292     -0.2710
      6  N2         4.1230    6.6640   23.2940 N.am  292  INH292     -0.3370
      7  N1         3.5450    3.1220   22.9050 N.3   292  INH292     -0.3010
      8  H5         3.9030    2.8050   23.7830 H     292  INH292      0.1730
      9  S1         3.3730    2.0180   21.7140 S.O2  292  INH292      0.2660
     10  O2         3.3970    0.7830   22.4400 O.2   292  INH292     -0.2000
     11  O1         2.2020    2.3290   20.9760 O.2   292  INH292     -0.2000
     12  C8         4.6980    2.0960   20.6010 C.ar  292  INH292      0.1210
     13  C5         6.0220    1.8800   21.0800 C.ar  292  INH292      0.0450
     14  C4         6.9030    1.9760   19.9620 C.ar  292  INH292     -0.0170
     15  C3         6.2320    2.2730   18.7500 C.ar  292  INH292      0.0180
     16  C6         8.3090    1.8250   20.0100 C.ar  292  INH292      0.0140
     17  C2         7.0150    2.3980   17.5570 C.ar  292  INH292      0.0430
     18  S2         4.5510    2.4110   18.9030 S.2   292  INH292     -0.0760
     19  C1         8.4110    2.2400   17.5990 C.ar  292  INH292      0.0350
     20 Cl1         9.3290    2.3750   16.1240 Cl    292  INH292     -0.0840
     21  C7         9.0760    1.9570   18.8260 C.ar  292  INH292      0.0240
     22  C13        4.9370    7.9090   23.1510 C.3   292  INH292      0.1750
     23  C14        4.1230    9.1970   23.4140 C.3   292  INH292      0.0420
     24  C15        6.1490    7.9030   24.0730 C.2   292  INH292      0.2420
     25  N3         7.4000    8.0580   23.5350 N.am  292  INH292     -0.3460
     26  C19        8.6750    8.0640   24.2980 C.3   292  INH292      0.1520
     27  C16        7.4980    8.2170   22.0750 C.3   292  INH292      0.1520
     28  C18        9.7770    8.9370   23.6980 C.3   292  INH292      0.1870
     29  O5         9.8540    8.7610   22.2880 O.3   292  INH292     -0.3880
     30  C17        8.6400    9.1490   21.6440 C.3   292  INH292      0.1870
     31  O4         5.9510    7.7500   25.2720 O.2   292  INH292     -0.2710
@<TRIPOS>BOND
     1    20    19    1
     2    17    19   ar
     3    17    15   ar
     4    19    21   ar
     5    15    18   ar
     6    15    14   ar
     7    21    16   ar
     8    18    12   ar
     9    14    16   ar
    10    14    13   ar
    11    12    13   ar
    12    12     9    1
    13    11     9    2
    14    30    27    1
    15    30    29    1
    16     9    10    2
    17     9     7    1
    18     5     4    2
    19    27    25    1
    20    29    28    1
    21     4     1    1
    22     4     6   am
    23     1     7    1
    24     1     2    1
    25     7     8    1
    26    22     6    1
    27    22    23    1
    28    22    24    1
    29     6     3    1
    30    25    24   am
    31    25    26    1
    32    28    26    1
    33     2     3    1
    34    24    31    2
