@<TRIPOS>MOLECULE
/tmp/ewbell/vina_2j34_2j34_lig/vina/vina3.pdbqt
 31 34 0 0 0
SMALL
GASTEIGER

@<TRIPOS>ATOM
      1  C9         5.6130    6.3250   21.9780 C.3   292  INH292      0.1860
      2  C10        4.3570    5.4410   22.0490 C.3   292  INH292      0.0550
      3  C11        4.8170    4.0310   21.6420 C.3   292  INH292      0.1290
      4  C12        6.6550    5.4580   21.2580 C.2   292  INH292      0.2440
      5  O3         7.7200    5.8580   20.8070 O.2   292  INH292     -0.2710
      6  N2         6.2110    4.1810   21.2100 N.am  292  INH292     -0.3370
      7  N1         5.3400    7.6760   21.4450 N.3   292  INH292     -0.3010
      8  H5         4.6090    7.7700   20.7700 H     292  INH292      0.1730
      9  S1         6.1490    9.0250   21.8800 S.O2  292  INH292      0.2660
     10  O2         6.7730    9.4150   20.6500 O.2   292  INH292     -0.2000
     11  O1         5.2320    9.9310   22.4720 O.2   292  INH292     -0.2000
     12  C8         7.3440    8.6710   23.0830 C.ar  292  INH292      0.1210
     13  C5         8.7060    9.0070   22.8300 C.ar  292  INH292      0.0450
     14  C4         9.4600    8.6330   23.9810 C.ar  292  INH292     -0.0170
     15  C3         8.6690    8.0340   24.9930 C.ar  292  INH292      0.0180
     16  C6        10.8570    8.7960   24.1370 C.ar  292  INH292      0.0140
     17  C2         9.3190    7.6110   26.1980 C.ar  292  INH292      0.0430
     18  S2         7.0200    7.9330   24.6170 S.2   292  INH292     -0.0760
     19  C1        10.7050    7.7810   26.3590 C.ar  292  INH292      0.0350
     20 Cl1        11.4580    7.2770   27.8480 Cl    292  INH292     -0.0840
     21  C7        11.4920    8.3700   25.3280 C.ar  292  INH292      0.0240
     22  C13        7.0730    3.0450   20.7630 C.3   292  INH292      0.1750
     23  C14        6.9760    1.8100   21.6870 C.3   292  INH292      0.0420
     24  C15        6.7480    2.6130   19.3390 C.2   292  INH292      0.2420
     25  N3         7.7440    2.6100   18.3970 N.am  292  INH292     -0.3460
     26  C19        7.5830    2.2260   16.9700 C.3   292  INH292      0.1520
     27  C16        9.0860    3.0380   18.8220 C.3   292  INH292      0.1520
     28  C18        8.8220    1.5990   16.3310 C.3   292  INH292      0.1870
     29  O5         9.9980    2.3150   16.6930 O.3   292  INH292     -0.3880
     30  C17       10.2160    2.2870   18.1040 C.3   292  INH292      0.1870
     31  O4         5.5930    2.2890   19.0920 O.2   292  INH292     -0.2710
@<TRIPOS>BOND
     1    28    29    1
     2    28    26    1
     3    29    30    1
     4    26    25    1
     5    30    27    1
     6    25    27    1
     7    25    24   am
     8    31    24    2
     9    24    22    1
    10    10     9    2
    11    22     6    1
    12    22    23    1
    13     8     7    1
    14     5     4    2
    15     6     4   am
    16     6     3    1
    17     4     1    1
    18     7     9    1
    19     7     1    1
    20     3     2    1
    21     9    11    2
    22     9    12    1
    23     1     2    1
    24    13    12   ar
    25    13    14   ar
    26    12    18   ar
    27    14    16   ar
    28    14    15   ar
    29    16    21   ar
    30    18    15   ar
    31    15    17   ar
    32    21    19   ar
    33    17    19   ar
    34    19    20    1
