@<TRIPOS>MOLECULE
./ligand/2f5t_lig.pdb
 45 46 0 0 0
SMALL
GASTEIGER

@<TRIPOS>ATOM
      1  C1        34.4190   33.4820   30.6460 C.3   471  INH471      0.1884
      2  C2        33.1780   32.6280   30.2940 C.3   471  INH471      0.1341
      3  C3        33.6850   31.3090   29.7090 C.3   471  INH471      0.1141
      4  C4        34.5990   31.5520   28.4880 C.3   471  INH471      0.1119
      5  C5        35.7010   32.5520   28.8180 C.3   471  INH471      0.1130
      6  C6        36.4390   32.9750   27.5430 C.3   471  INH471      0.0730
      7  O1        35.1540   32.7630   31.5820 O.3   471  INH471     -0.3401
      8  O2        32.3840   32.4080   31.4230 O.3   471  INH471     -0.3841
      9  O3        32.5520   30.4710   29.3950 O.3   471  INH471     -0.3864
     10  O4        35.1120   30.2950   28.0700 O.3   471  INH471     -0.3865
     11  O5        35.1410   33.7160   29.4380 O.3   471  INH471     -0.3405
     12  O6        35.5550   33.5740   26.5600 O.3   471  INH471     -0.3924
     13  C7        36.8910   33.3440   35.2690 C.3   471  INH471      0.1854
     14  C8        35.7240   34.2810   34.9740 C.3   471  INH471      0.1339
     15  C9        34.9570   33.8190   33.7270 C.3   471  INH471      0.1144
     16  C10       35.8830   33.4960   32.5460 C.3   471  INH471      0.1184
     17  C11       37.0170   32.5890   32.9990 C.3   471  INH471      0.1134
     18  C12       38.0400   32.3270   31.8840 C.3   471  INH471      0.0730
     19  O7        37.6070   33.7320   36.3590 O.3   471  INH471     -0.3649
     20  O8        34.8000   34.4230   36.0340 O.3   471  INH471     -0.3841
     21  O9        34.0430   34.8130   33.3610 O.3   471  INH471     -0.3864
     22  O10       37.6840   33.1200   34.1370 O.3   471  INH471     -0.3407
     23  O11       38.8680   33.4540   31.6510 O.3   471  INH471     -0.3924
     24  H1        34.1140   34.4450   31.0800 H     471  INH471      0.0938
     25  H2        32.5760   33.1540   29.5390 H     471  INH471      0.0671
     26  H3        34.2850   30.7980   30.4770 H     471  INH471      0.0648
     27  H4        33.9950   31.9720   27.6700 H     471  INH471      0.0647
     28  H5        36.4150   32.0810   29.5100 H     471  INH471      0.0647
     29  H6        36.9110   32.0870   27.0980 H     471  INH471      0.0584
     30  H7        37.2150   33.7070   27.8110 H     471  INH471      0.0584
     31  H8        32.0830   33.2410   31.7660 H     471  INH471      0.2101
     32  H9        32.0220   30.3510   30.1740 H     471  INH471      0.2100
     33  H10       34.3910   29.7070   27.8760 H     471  INH471      0.2100
     34  H11       36.0560   33.8190   25.7910 H     471  INH471      0.2095
     35  H12       36.4470   32.3710   35.5280 H     471  INH471      0.0935
     36  H13       36.1510   35.2740   34.7700 H     471  INH471      0.0671
     37  H14       34.4020   32.9050   33.9840 H     471  INH471      0.0648
     38  H15       36.2810   34.4260   32.1130 H     471  INH471      0.0651
     39  H16       36.5740   31.6230   33.2840 H     471  INH471      0.0647
     40  H17       37.5010   32.0840   30.9560 H     471  INH471      0.0584
     41  H18       38.6720   31.4750   32.1740 H     471  INH471      0.0584
     42  H19       38.3200   33.1210   36.5030 H     471  INH471      0.2126
     43  H20       35.2570   34.7090   36.8160 H     471  INH471      0.2101
     44  H21       33.4740   35.0070   34.0970 H     471  INH471      0.2100
     45  H22       39.4860   33.2550   30.9570 H     471  INH471      0.2095
@<TRIPOS>BOND
     1     1     7    1
     2     1    24    1
     3     1    11    1
     4     1     2    1
     5     2    25    1
     6     2     8    1
     7     2     3    1
     8     3    26    1
     9     3     9    1
    10     3     4    1
    11     4    27    1
    12     4    10    1
    13     4     5    1
    14     5    28    1
    15     5    11    1
    16     5     6    1
    17     6    30    1
    18     6    29    1
    19     6    12    1
    20     7    16    1
    21     8    31    1
    22     9    32    1
    23    10    33    1
    24    12    34    1
    25    13    35    1
    26    13    22    1
    27    13    19    1
    28    13    14    1
    29    14    36    1
    30    14    20    1
    31    14    15    1
    32    15    37    1
    33    15    21    1
    34    15    16    1
    35    16    38    1
    36    16    17    1
    37    17    39    1
    38    17    22    1
    39    17    18    1
    40    18    41    1
    41    18    40    1
    42    18    23    1
    43    19    42    1
    44    20    43    1
    45    21    44    1
    46    23    45    1
