@<TRIPOS>MOLECULE
/tmp/ewbell/vina_2f5t_2f5t_lig/vina/vina2.pdbqt
 31 32 0 0 0
SMALL
GASTEIGER

@<TRIPOS>ATOM
      1  O1        36.2210   32.6800   32.0180 O.3   471  INH471     -0.3480
      2  C1        36.7300   33.8850   32.4900 C.3   471  INH471      0.2920
      3  O5        36.0630   34.3440   33.6650 O.3   471  INH471     -0.3480
      4  C5        35.9870   33.4000   34.7400 C.3   471  INH471      0.1790
      5  C4        37.3880   32.9730   35.1640 C.3   471  INH471      0.1800
      6  C3        38.2360   32.5580   33.9420 C.3   471  INH471      0.1830
      7  C2        38.2110   33.6360   32.8580 C.3   471  INH471      0.2040
      8  C6        35.2450   34.0450   35.9160 C.3   471  INH471      0.1980
      9  O6        34.4840   35.2150   35.5200 O.3   471  INH471     -0.3980
     10  H11       34.2220   35.6990   36.2950 H     471  INH471      0.2090
     11  O4        37.3730   31.8840   36.0750 O.3   471  INH471     -0.3900
     12  H10       37.3420   32.2160   36.9660 H     471  INH471      0.2100
     13  O3        39.6090   32.2770   34.2910 O.3   471  INH471     -0.3900
     14  H9        40.1220   32.1810   33.4970 H     471  INH471      0.2100
     15  O2        38.9470   33.2410   31.7360 O.3   471  INH471     -0.3880
     16  H8        38.6010   33.6710   30.9630 H     471  INH471      0.2100
     17  C10       35.3140   32.7320   30.9350 C.3   471  INH471      0.1870
     18  C9        36.0620   32.3740   29.6430 C.3   471  INH471      0.1830
     19  C8        35.1170   32.0420   28.4820 C.3   471  INH471      0.2040
     20  C7        34.0350   31.0620   28.9270 C.3   471  INH471      0.2880
     21  O10       33.4010   31.4800   30.1040 O.3   471  INH471     -0.3490
     22  C11       34.2440   31.6910   31.2300 C.3   471  INH471      0.1800
     23  O9        36.8950   33.4320   29.2640 O.3   471  INH471     -0.3900
     24  H21       36.3750   34.1160   28.8600 H     471  INH471      0.2100
     25  O8        35.8970   31.6000   27.3880 O.3   471  INH471     -0.3880
     26  H20       35.5620   31.9810   26.5860 H     471  INH471      0.2100
     27  O7        33.1650   30.7580   27.9270 O.3   471  INH471     -0.3690
     28  H19       32.8020   29.8920   28.0750 H     471  INH471      0.2120
     29  C12       33.3860   32.0600   32.4470 C.3   471  INH471      0.1980
     30  O11       33.3710   33.4580   32.6790 O.3   471  INH471     -0.3980
     31  H22       32.5530   33.7020   33.0980 H     471  INH471      0.2090
@<TRIPOS>BOND
     1    26    25    1
     2    25    19    1
     3    27    28    1
     4    27    20    1
     5    19    20    1
     6    19    18    1
     7    24    23    1
     8    20    21    1
     9    23    18    1
    10    18    17    1
    11    21    22    1
    12    17    22    1
    13    17     1    1
    14    16    15    1
    15    22    29    1
    16    15     7    1
    17     1     2    1
    18    29    30    1
    19     2     7    1
    20     2     3    1
    21    30    31    1
    22     7     6    1
    23    14    13    1
    24     3     4    1
    25     6    13    1
    26     6     5    1
    27     4     5    1
    28     4     8    1
    29     5    11    1
    30     9     8    1
    31     9    10    1
    32    11    12    1
