@<TRIPOS>MOLECULE
/tmp/ewbell/vina_2f5t_2f5t_lig/vina/vina3.pdbqt
 31 32 0 0 0
SMALL
GASTEIGER

@<TRIPOS>ATOM
      1  O1        35.7770   33.3970   31.6800 O.3   471  INH471     -0.3480
      2  C1        35.6800   32.0180   31.5250 C.3   471  INH471      0.2920
      3  O5        34.4270   31.5000   31.9670 O.3   471  INH471     -0.3480
      4  C5        33.2670   32.1280   31.4080 C.3   471  INH471      0.1790
      5  C4        33.2850   32.0080   29.8890 C.3   471  INH471      0.1800
      6  C3        34.6490   32.4460   29.3130 C.3   471  INH471      0.1830
      7  C2        35.8030   31.7240   30.0110 C.3   471  INH471      0.2040
      8  C6        32.0130   31.4590   31.9830 C.3   471  INH471      0.1980
      9  O6        32.3280   30.3650   32.8830 O.3   471  INH471     -0.3980
     10  H11       33.0500   29.8610   32.5270 H     471  INH471      0.2090
     11  O4        32.2780   32.7940   29.2680 O.3   471  INH471     -0.3900
     12  H10       32.5970   33.1180   28.4330 H     471  INH471      0.2100
     13  O3        34.7490   32.2180   27.8910 O.3   471  INH471     -0.3900
     14  H9        34.2440   31.4470   27.6580 H     471  INH471      0.2100
     15  O2        37.0400   32.1510   29.5170 O.3   471  INH471     -0.3880
     16  H8        37.5450   32.5400   30.2210 H     471  INH471      0.2100
     17  C10       36.2830   33.8840   32.9070 C.3   471  INH471      0.1870
     18  C9        35.1530   33.8800   33.9460 C.3   471  INH471      0.1830
     19  C8        35.6660   34.0360   35.3830 C.3   471  INH471      0.2040
     20  C7        36.8290   33.0840   35.6480 C.3   471  INH471      0.2880
     21  O10       37.8140   33.1680   34.6560 O.3   471  INH471     -0.3490
     22  C11       37.3840   32.9210   33.3230 C.3   471  INH471      0.1800
     23  O9        34.2470   34.9110   33.6720 O.3   471  INH471     -0.3900
     24  H21       34.6340   35.5170   33.0500 H     471  INH471      0.2100
     25  O8        34.5710   33.8860   36.2640 O.3   471  INH471     -0.3880
     26  H20       33.8210   33.5550   35.7830 H     471  INH471      0.2100
     27  O7        37.3240   33.2050   36.9090 O.3   471  INH471     -0.3690
     28  H19       36.6130   33.3850   37.5130 H     471  INH471      0.2120
     29  C12       38.5940   32.9700   32.3800 C.3   471  INH471      0.1980
     30  O11       38.7410   31.7670   31.6460 O.3   471  INH471     -0.3980
     31  H22       38.8270   31.0360   32.2480 H     471  INH471      0.2090
@<TRIPOS>BOND
     1    14    13    1
     2    13     6    1
     3    12    11    1
     4    11     5    1
     5     6     5    1
     6     6     7    1
     7    15     7    1
     8    15    16    1
     9     5     4    1
    10     7     2    1
    11     4     3    1
    12     4     8    1
    13     2     1    1
    14     2     3    1
    15    30    31    1
    16    30    29    1
    17     1    17    1
    18     8     9    1
    19    29    22    1
    20    10     9    1
    21    17    22    1
    22    17    18    1
    23    24    23    1
    24    22    21    1
    25    23    18    1
    26    18    19    1
    27    21    20    1
    28    19    20    1
    29    19    25    1
    30    20    27    1
    31    26    25    1
    32    27    28    1
