@<TRIPOS>MOLECULE
/tmp/ewbell/vina_2f5t_2f5t_lig/vina/vina1.pdbqt
 31 32 0 0 0
SMALL
GASTEIGER

@<TRIPOS>ATOM
      1  O1        35.1560   32.7100   31.6340 O.3   471  INH471     -0.3480
      2  C1        34.4240   33.4220   30.6910 C.3   471  INH471      0.2920
      3  O5        35.1440   33.6350   29.4780 O.3   471  INH471     -0.3480
      4  C5        35.6940   32.4590   28.8710 C.3   471  INH471      0.1790
      5  C4        34.5850   31.4630   28.5580 C.3   471  INH471      0.1800
      6  C3        33.6720   31.2420   29.7840 C.3   471  INH471      0.1830
      7  C2        33.1760   32.5720   30.3520 C.3   471  INH471      0.2040
      8  C6        36.4320   32.8610   27.5890 C.3   471  INH471      0.1980
      9  O6        35.6040   33.6450   26.6920 O.3   471  INH471     -0.3980
     10  H11       36.1320   34.3230   26.2870 H     471  INH471      0.2090
     11  O4        35.0870   30.1970   28.1540 O.3   471  INH471     -0.3900
     12  H10       34.7810   29.9990   27.2760 H     471  INH471      0.2100
     13  O3        32.5330   30.4080   29.4830 O.3   471  INH471     -0.3900
     14  H9        32.0380   30.2510   30.2790 H     471  INH471      0.2100
     15  O2        32.3840   32.3720   31.4870 O.3   471  INH471     -0.3880
     16  H8        31.6610   31.7950   31.2720 H     471  INH471      0.2100
     17  C10       35.7660   33.4410   32.6780 C.3   471  INH471      0.1870
     18  C9        34.7580   33.6040   33.8250 C.3   471  INH471      0.1830
     19  C8        35.4170   34.0500   35.1360 C.3   471  INH471      0.2040
     20  C7        36.6510   33.2050   35.4380 C.3   471  INH471      0.2880
     21  O10       37.5150   33.1270   34.3390 O.3   471  INH471     -0.3490
     22  C11       36.9570   32.6120   33.1360 C.3   471  INH471      0.1800
     23  O9        33.7750   34.5330   33.4700 O.3   471  INH471     -0.3900
     24  H21       33.2270   34.1690   32.7850 H     471  INH471      0.2100
     25  O8        34.4340   34.0400   36.1520 O.3   471  INH471     -0.3880
     26  H20       33.6980   33.5080   35.8740 H     471  INH471      0.2100
     27  O7        37.2740   33.5840   36.5860 O.3   471  INH471     -0.3690
     28  H19       37.7770   34.3740   36.4270 H     471  INH471      0.2120
     29  C12       38.0520   32.5160   32.0660 C.3   471  INH471      0.1980
     30  O11       39.3500   32.5380   32.6350 O.3   471  INH471     -0.3980
     31  H22       39.3210   32.1590   33.5060 H     471  INH471      0.2090
@<TRIPOS>BOND
     1    10     9    1
     2     9     8    1
     3    12    11    1
     4     8     4    1
     5    11     5    1
     6     5     4    1
     7     5     6    1
     8     4     3    1
     9     3     2    1
    10    13     6    1
    11    13    14    1
    12     6     7    1
    13     7     2    1
    14     7    15    1
    15     2     1    1
    16    16    15    1
    17     1    17    1
    18    29    30    1
    19    29    22    1
    20    30    31    1
    21    17    22    1
    22    17    18    1
    23    24    23    1
    24    22    21    1
    25    23    18    1
    26    18    19    1
    27    21    20    1
    28    19    20    1
    29    19    25    1
    30    20    27    1
    31    26    25    1
    32    28    27    1
