@<TRIPOS>MOLECULE
/tmp/ewbell/vina_2f5t_2f5t_lig/vina/vina4.pdbqt
 31 32 0 0 0
SMALL
GASTEIGER

@<TRIPOS>ATOM
      1  O1        36.1080   32.7460   32.6780 O.3   471  INH471     -0.3480
      2  C1        35.6650   33.6700   31.7370 C.3   471  INH471      0.2920
      3  O5        36.0810   33.3500   30.4110 O.3   471  INH471     -0.3480
      4  C5        35.7650   32.0250   29.9670 C.3   471  INH471      0.1790
      5  C4        34.2590   31.7960   30.0270 C.3   471  INH471      0.1800
      6  C3        33.6870   32.2180   31.3980 C.3   471  INH471      0.1830
      7  C2        34.1190   33.6380   31.7660 C.3   471  INH471      0.2040
      8  C6        36.2780   31.8450   28.5340 C.3   471  INH471      0.1980
      9  O6        35.7550   30.6480   27.9010 O.3   471  INH471     -0.3980
     10  H11       34.8680   30.4920   28.2030 H     471  INH471      0.2090
     11  O4        33.9050   30.4380   29.8050 O.3   471  INH471     -0.3900
     12  H10       33.4100   30.1140   30.5500 H     471  INH471      0.2100
     13  O3        32.2460   32.1420   31.4430 O.3   471  INH471     -0.3900
     14  H9        31.9140   32.7950   32.0490 H     471  INH471      0.2100
     15  O2        33.6340   34.0030   33.0260 O.3   471  INH471     -0.3880
     16  H8        32.7210   34.2560   32.9520 H     471  INH471      0.2100
     17  C10       36.9630   33.2130   33.7020 C.3   471  INH471      0.1870
     18  C9        36.3680   32.8200   35.0620 C.3   471  INH471      0.1830
     19  C8        37.3770   32.9460   36.2100 C.3   471  INH471      0.2040
     20  C7        38.7030   32.2900   35.8410 C.3   471  INH471      0.2880
     21  O10       39.1720   32.7190   34.5930 O.3   471  INH471     -0.3490
     22  C11       38.2980   32.5140   33.4900 C.3   471  INH471      0.1800
     23  O9        35.2540   33.6170   35.3450 O.3   471  INH471     -0.3900
     24  H21       34.8750   33.9330   34.5330 H     471  INH471      0.2100
     25  O8        36.7760   32.4390   37.3850 O.3   471  INH471     -0.3880
     26  H20       36.3440   31.6160   37.1900 H     471  INH471      0.2100
     27  O7        39.6310   32.3970   36.8290 O.3   471  INH471     -0.3690
     28  H19       40.3100   31.7460   36.6980 H     471  INH471      0.2120
     29  C12       38.9950   32.9600   32.1970 C.3   471  INH471      0.1980
     30  O11       38.8210   32.0200   31.1510 O.3   471  INH471     -0.3980
     31  H22       39.1850   31.1820   31.4140 H     471  INH471      0.2090
@<TRIPOS>BOND
     1     9    10    1
     2     9     8    1
     3     8     4    1
     4    11     5    1
     5    11    12    1
     6     4     5    1
     7     4     3    1
     8     5     6    1
     9     3     2    1
    10    30    31    1
    11    30    29    1
    12     6    13    1
    13     6     7    1
    14    13    14    1
    15     2     7    1
    16     2     1    1
    17     7    15    1
    18    29    22    1
    19     1    17    1
    20    16    15    1
    21    22    17    1
    22    22    21    1
    23    17    18    1
    24    24    23    1
    25    21    20    1
    26    18    23    1
    27    18    19    1
    28    20    19    1
    29    20    27    1
    30    19    25    1
    31    28    27    1
    32    26    25    1
