@<TRIPOS>MOLECULE
/tmp/ewbell/vina_2f5t_2f5t_lig/vina/vina5.pdbqt
 31 32 0 0 0
SMALL
GASTEIGER

@<TRIPOS>ATOM
      1  O1        36.1190   32.2980   32.1180 O.3   471  INH471     -0.3480
      2  C1        37.0840   33.2710   32.3500 C.3   471  INH471      0.2920
      3  O5        36.5410   34.5910   32.3810 O.3   471  INH471     -0.3480
      4  C5        35.4390   34.7830   33.2770 C.3   471  INH471      0.1790
      5  C4        35.8550   34.4410   34.7030 C.3   471  INH471      0.1800
      6  C3        36.5570   33.0670   34.7630 C.3   471  INH471      0.1830
      7  C2        37.6930   32.9800   33.7420 C.3   471  INH471      0.2040
      8  C6        34.9780   36.2430   33.1890 C.3   471  INH471      0.1980
      9  O6        35.9540   37.0980   32.5390 O.3   471  INH471     -0.3980
     10  H11       36.2180   37.7870   33.1370 H     471  INH471      0.2090
     11  O4        34.7530   34.4070   35.5980 O.3   471  INH471     -0.3900
     12  H10       35.0680   34.4760   36.4920 H     471  INH471      0.2100
     13  O3        37.0840   32.7710   36.0740 O.3   471  INH471     -0.3900
     14  H9        36.5680   33.2240   36.7310 H     471  INH471      0.2100
     15  O2        38.3010   31.7210   33.7690 O.3   471  INH471     -0.3880
     16  H8        37.6830   31.0640   33.4730 H     471  INH471      0.2100
     17  C10       35.2010   32.5230   31.0670 C.3   471  INH471      0.1870
     18  C9        35.9270   32.3430   29.7260 C.3   471  INH471      0.1830
     19  C8        34.9620   32.2010   28.5420 C.3   471  INH471      0.2040
     20  C7        33.8660   31.1880   28.8550 C.3   471  INH471      0.2880
     21  O10       33.2540   31.4410   30.0890 O.3   471  INH471     -0.3490
     22  C11       34.1130   31.4700   31.2220 C.3   471  INH471      0.1800
     23  O9        36.7770   33.4290   29.4930 O.3   471  INH471     -0.3900
     24  H21       36.4990   33.8880   28.7090 H     471  INH471      0.2100
     25  O8        35.7210   31.9080   27.3850 O.3   471  INH471     -0.3880
     26  H20       35.3970   32.4230   26.6560 H     471  INH471      0.2100
     27  O7        32.9790   31.0480   27.8340 O.3   471  INH471     -0.3690
     28  H19       33.1510   31.7080   27.1730 H     471  INH471      0.2120
     29  C12       33.2760   31.6740   32.4920 C.3   471  INH471      0.1980
     30  O11       32.3070   30.6530   32.6550 O.3   471  INH471     -0.3980
     31  H22       32.2210   30.4420   33.5790 H     471  INH471      0.2090
@<TRIPOS>BOND
     1    26    25    1
     2    28    27    1
     3    25    19    1
     4    27    20    1
     5    19    20    1
     6    19    18    1
     7    24    23    1
     8    20    21    1
     9    23    18    1
    10    18    17    1
    11    21    22    1
    12    17    22    1
    13    17     1    1
    14    22    29    1
    15     1     2    1
    16     2     3    1
    17     2     7    1
    18     3     4    1
    19    29    30    1
    20     9    10    1
    21     9     8    1
    22    30    31    1
    23     8     4    1
    24     4     5    1
    25    16    15    1
    26     7    15    1
    27     7     6    1
    28     5     6    1
    29     5    11    1
    30     6    13    1
    31    11    12    1
    32    13    14    1
