@<TRIPOS>MOLECULE
./ligand/1y1m_lig.pdb
 20 20 0 0 0
SMALL
GASTEIGER

@<TRIPOS>ATOM
      1  N1         1.5890   -4.3680    0.4860 N.4   276  INH276      0.2311
      2  O1         0.5990   -6.6920    1.1810 O.co2 276  INH276     -0.2396
      3  C1         1.9010   -4.7880    1.8810 C.3   276  INH276      0.0889
      4  C2         1.3980   -6.2420    2.0740 C.2   276  INH276      0.4056
      5  C3         3.4030   -4.6300    2.1750 C.3   276  INH276      0.0038
      6  C4         1.1950   -3.8660    2.8930 C.3   276  INH276      0.0038
      7  O2         1.7540   -6.9110    3.0480 O.co2 276  INH276     -0.2396
      8  C5         3.5140   -3.5170    3.1850 C.3   276  INH276     -0.0469
      9  C6         2.2020   -2.7670    3.1550 C.3   276  INH276     -0.0469
     10  H1         1.9090   -3.4230    0.3400 H     276  INH276      0.2005
     11  H2         0.5930   -4.4120    0.3360 H     276  INH276      0.2005
     12  H3         2.0540   -4.9840   -0.1620 H     276  INH276      0.2005
     13  H4         3.9470   -4.3670    1.2560 H     276  INH276      0.0328
     14  H5         3.8120   -5.5640    2.5890 H     276  INH276      0.0328
     15  H6         0.9610   -4.4100    3.8200 H     276  INH276      0.0328
     16  H7         0.2690   -3.4540    2.4660 H     276  INH276      0.0328
     17  H8         4.3410   -2.8430    2.9170 H     276  INH276      0.0267
     18  H9         3.6900   -3.9320    4.1880 H     276  INH276      0.0267
     19  H10        2.0070   -2.2710    4.1170 H     276  INH276      0.0267
     20  H11        2.1910   -2.0190    2.3490 H     276  INH276      0.0267
@<TRIPOS>BOND
     1     1    12    1
     2     1    11    1
     3     1    10    1
     4     1     3    1
     5     2     4   ar
     6     3     6    1
     7     3     5    1
     8     3     4    1
     9     4     7   ar
    10     5    14    1
    11     5    13    1
    12     5     8    1
    13     6     9    1
    14     6    16    1
    15     6    15    1
    16     8    18    1
    17     8    17    1
    18     8     9    1
    19     9    20    1
    20     9    19    1
