@<TRIPOS>MOLECULE
/tmp/ewbell/vina_1y1m_1y1m_lig/vina/vina4.pdbqt
 13 13 0 0 0
SMALL
GASTEIGER

@<TRIPOS>ATOM
      1  C1         2.3190   -4.9160    4.2850 C.3   276  INH276      0.2070
      2  C3         1.8750   -3.5070    3.8560 C.3   276  INH276      0.0500
      3  C4         1.5850   -5.8760    3.3290 C.3   276  INH276      0.0500
      4  C5         1.0770   -3.6890    2.5910 C.3   276  INH276      0.0030
      5  C6         1.4040   -5.0670    2.0620 C.3   276  INH276      0.0030
      6  N1         3.7940   -5.0700    4.1480 N.4   276  INH276     -0.0600
      7  H3         4.1920   -4.2080    3.8110 H     276  INH276      0.2750
      8  H2         4.1940   -5.2970    5.0450 H     276  INH276      0.2750
      9  H1         3.9960   -5.8110    3.4940 H     276  INH276      0.2750
     10  C2         1.9290   -5.2530    5.7470 C.2   276  INH276      0.1770
     11  O1         2.1330   -6.4570    6.1290 O.2   276  INH276     -0.6480
     12  O2         1.4430   -4.3930    6.4870 O.3   276  INH276     -0.7750
     13  H          1.2200   -4.6070    7.3710 H     276  INH276      0.1670
@<TRIPOS>BOND
     1     5     4    1
     2     5     3    1
     3     4     2    1
     4     3     1    1
     5     9     6    1
     6     7     6    1
     7     2     1    1
     8     6     1    1
     9     6     8    1
    10     1    10    1
    11    10    11    2
    12    10    12    1
    13    12    13    1
