@<TRIPOS>MOLECULE
/tmp/ewbell/vina_1y1m_1y1m_lig/vina/vina2.pdbqt
 13 13 0 0 0
SMALL
GASTEIGER

@<TRIPOS>ATOM
      1  C1         2.2600   -5.0710    2.9570 C.3   276  INH276      0.2070
      2  C3         1.3630   -3.8340    3.1410 C.3   276  INH276      0.0500
      3  C4         3.6070   -4.5190    2.4550 C.3   276  INH276      0.0500
      4  C5         2.2550   -2.6380    2.9270 C.3   276  INH276      0.0030
      5  C6         3.6800   -3.1290    3.0490 C.3   276  INH276      0.0030
      6  N1         2.4390   -5.7890    4.2500 N.4   276  INH276     -0.0600
      7  H3         2.7210   -5.1340    4.9620 H     276  INH276      0.2750
      8  H2         1.5690   -6.2230    4.5180 H     276  INH276      0.2750
      9  H1         3.1490   -6.4980    4.1450 H     276  INH276      0.2750
     10  C2         1.6970   -6.0750    1.9180 C.2   276  INH276      0.1770
     11  O1         0.9140   -5.5940    1.0280 O.2   276  INH276     -0.6480
     12  O2         1.9940   -7.2720    1.9690 O.3   276  INH276     -0.7750
     13  H          2.8610   -7.5290    2.2160 H     276  INH276      0.1670
@<TRIPOS>BOND
     1    11    10    2
     2    10    12    1
     3    10     1    1
     4    12    13    1
     5     3     1    1
     6     3     5    1
     7     4     5    1
     8     4     2    1
     9     1     2    1
    10     1     6    1
    11     9     6    1
    12     6     8    1
    13     6     7    1
