@<TRIPOS>MOLECULE
/tmp/ewbell/vina_1y1m_1y1m_lig/vina/vina3.pdbqt
 13 13 0 0 0
SMALL
GASTEIGER

@<TRIPOS>ATOM
      1  C1         3.1420   -4.1770    2.9350 C.3   276  INH276      0.2070
      2  C3         3.2210   -4.7820    4.3480 C.3   276  INH276      0.0500
      3  C4         1.7110   -3.6200    2.8170 C.3   276  INH276      0.0500
      4  C5         1.9380   -4.3950    5.0380 C.3   276  INH276      0.0030
      5  C6         1.3360   -3.2620    4.2390 C.3   276  INH276      0.0030
      6  N1         4.1430   -3.0860    2.7710 N.4   276  INH276     -0.0600
      7  H3         5.0710   -3.4790    2.7700 H     276  INH276      0.2750
      8  H2         3.9800   -2.6080    1.8990 H     276  INH276      0.2750
      9  H1         4.0550   -2.4320    3.5340 H     276  INH276      0.2750
     10  C2         3.3780   -5.2250    1.8170 C.2   276  INH276      0.1770
     11  O1         2.4400   -6.0730    1.6230 O.2   276  INH276     -0.6480
     12  O2         4.4260   -5.2300    1.1650 O.3   276  INH276     -0.7750
     13  H          5.0920   -4.5950    1.3430 H     276  INH276      0.1670
@<TRIPOS>BOND
     1    12    13    1
     2    12    10    1
     3    11    10    2
     4    10     1    1
     5     8     6    1
     6     7     6    1
     7     6     1    1
     8     6     9    1
     9     3     1    1
    10     3     5    1
    11     1     2    1
    12     5     4    1
    13     2     4    1
