@<TRIPOS>MOLECULE
/tmp/ewbell/vina_1y1m_1y1m_lig/vina/vina5.pdbqt
 13 13 0 0 0
SMALL
GASTEIGER

@<TRIPOS>ATOM
      1  C1         2.1600   -5.5000    4.8090 C.3   276  INH276      0.2070
      2  C3         1.8170   -6.6940    5.7180 C.3   276  INH276      0.0500
      3  C4         1.5410   -4.2740    5.5080 C.3   276  INH276      0.0500
      4  C5         1.1990   -6.1070    6.9600 C.3   276  INH276      0.0030
      5  C6         1.5600   -4.6390    6.9770 C.3   276  INH276      0.0030
      6  N1         3.6360   -5.3400    4.6820 N.4   276  INH276     -0.0600
      7  H3         4.0530   -5.3330    5.6000 H     276  INH276      0.2750
      8  H2         4.0130   -6.1060    4.1470 H     276  INH276      0.2750
      9  H1         3.8400   -4.4700    4.2140 H     276  INH276      0.2750
     10  C2         1.5620   -5.6350    3.3850 C.2   276  INH276      0.1770
     11  O1         1.5550   -6.8100    2.8790 O.2   276  INH276     -0.6480
     12  O2         1.1290   -4.6480    2.7850 O.3   276  INH276     -0.7750
     13  H          0.3230   -4.2510    3.0540 H     276  INH276      0.1670
@<TRIPOS>BOND
     1    12    13    1
     2    12    10    1
     3    11    10    2
     4    10     1    1
     5     8     6    1
     6     9     6    1
     7     6     1    1
     8     6     7    1
     9     1     3    1
    10     1     2    1
    11     3     5    1
    12     2     4    1
    13     4     5    1
