@<TRIPOS>MOLECULE
/tmp/ewbell/vina_1y1m_1y1m_lig/vina/vina1.pdbqt
 13 13 0 0 0
SMALL
GASTEIGER

@<TRIPOS>ATOM
      1  C1         1.8280   -4.8520    2.0170 C.3   276  INH276      0.2070
      2  C3         3.3610   -4.7810    2.1240 C.3   276  INH276      0.0500
      3  C4         1.3060   -3.8260    3.0410 C.3   276  INH276      0.0500
      4  C5         3.6610   -3.6220    3.0390 C.3   276  INH276      0.0030
      5  C6         2.4030   -2.7860    3.1120 C.3   276  INH276      0.0030
      6  N1         1.3770   -4.4930    0.6430 N.4   276  INH276     -0.0600
      7  H3         2.0130   -4.8870   -0.0330 H     276  INH276      0.2750
      8  H2         0.4510   -4.8590    0.4850 H     276  INH276      0.2750
      9  H1         1.3620   -3.4900    0.5450 H     276  INH276      0.2750
     10  C2         1.2620   -6.2540    2.3620 C.2   276  INH276      0.1770
     11  O1         0.4730   -6.7780    1.5020 O.2   276  INH276     -0.6480
     12  O2         1.5630   -6.8150    3.4190 O.3   276  INH276     -0.7750
     13  H          0.9530   -6.8330    4.1300 H     276  INH276      0.1670
@<TRIPOS>BOND
     1     7     6    1
     2     8     6    1
     3     9     6    1
     4     6     1    1
     5    11    10    2
     6     1     2    1
     7     1    10    1
     8     1     3    1
     9     2     4    1
    10    10    12    1
    11     4     5    1
    12     3     5    1
    13    12    13    1
