@<TRIPOS>MOLECULE
./ligand/1usi_lig.pdb
 23 23 0 0 0
SMALL
GASTEIGER

@<TRIPOS>ATOM
      1  N1        31.1900    8.7170   48.4030 N.4   348  INH348      0.2291
      2  C1        30.3350    9.8780   48.0900 C.3   348  INH348      0.0826
      3  C2        30.9490   11.1880   48.6260 C.2   348  INH348      0.4029
      4  O1        30.3430   12.2340   48.3490 O.co2 348  INH348     -0.2400
      5  C3        28.9380    9.7620   48.7130 C.3   348  INH348      0.0261
      6  C4        28.2390    8.4860   48.3920 C.ar  348  INH348     -0.0415
      7  C5        28.2360    8.0170   47.0700 C.ar  348  INH348     -0.0584
      8  C6        27.5540    7.7950   49.3660 C.ar  348  INH348     -0.0584
      9  C7        27.5620    6.7740   46.7640 C.ar  348  INH348     -0.0615
     10  C8        26.8950    6.6170   49.1150 C.ar  348  INH348     -0.0615
     11  C9        26.8850    6.0860   47.7970 C.ar  348  INH348     -0.0617
     12  O2        31.9690   11.1070   49.2640 O.co2 348  INH348     -0.2400
     13  H1        30.7640    7.8780   48.0410 H     348  INH348      0.2003
     14  H2        31.2950    8.6360   49.4020 H     348  INH348      0.2003
     15  H3        32.0960    8.8430   47.9790 H     348  INH348      0.2003
     16  H4        30.2360    9.9440   46.9960 H     348  INH348      0.0973
     17  H5        28.3230   10.5960   48.3440 H     348  INH348      0.0374
     18  H6        29.0390    9.8370   49.8060 H     348  INH348      0.0374
     19  H7        27.5340    8.1980   50.3720 H     348  INH348      0.0620
     20  H8        28.7330    8.5790   46.2870 H     348  INH348      0.0620
     21  H9        26.3860    6.0950   49.9170 H     348  INH348      0.0618
     22  H10       27.5760    6.3750   45.7560 H     348  INH348      0.0618
     23  H11       26.3620    5.1600   47.5850 H     348  INH348      0.0618
@<TRIPOS>BOND
     1     1    14    1
     2     1     2    1
     3     1    13    1
     4     1    15    1
     5     2     5    1
     6     2     3    1
     7     2    16    1
     8     3    12   ar
     9     3     4   ar
    10     5    18    1
    11     5     6    1
    12     5    17    1
    13     6     8   ar
    14     6     7   ar
    15     7     9   ar
    16     7    20    1
    17     8    10   ar
    18     8    19    1
    19     9    11   ar
    20     9    22    1
    21    10    11   ar
    22    10    21    1
    23    11    23    1
