@<TRIPOS>MOLECULE
/tmp/ewbell/vina_1usi_1usi_lig/vina/vina3.pdbqt
 16 16 0 0 0
SMALL
GASTEIGER

@<TRIPOS>ATOM
      1  C1        36.1960   -3.8980   50.8610 C.3   348  INH348      0.2840
      2  N1        35.0620   -3.4730   50.0190 N.4   348  INH348     -0.0650
      3  H2        34.2940   -4.1140   50.1410 H     348  INH348      0.2750
      4  H1        34.7720   -2.5450   50.2860 H     348  INH348      0.2750
      5  H3        35.3450   -3.4700   49.0510 H     348  INH348      0.2750
      6  C3        35.7400   -4.5560   52.1700 C.3   348  INH348      0.0820
      7  C4        36.2690   -3.8920   53.3940 C.ar  348  INH348     -0.0560
      8  C6        35.4530   -3.1060   54.1770 C.ar  348  INH348      0.0070
      9  C8        35.8970   -2.4770   55.3130 C.ar  348  INH348      0.0010
     10  C9        37.2430   -2.6510   55.7320 C.ar  348  INH348      0.0000
     11  C7        38.1100   -3.4650   54.9660 C.ar  348  INH348      0.0010
     12  C5        37.5980   -4.1180   53.7790 C.ar  348  INH348      0.0070
     13  C2        37.0800   -4.9330   50.1340 C.2   348  INH348      0.1710
     14  O2        36.5670   -5.5930   49.2640 O.2   348  INH348     -0.6480
     15  O1        38.2630   -5.0000   50.4990 O.3   348  INH348     -0.7750
     16  H         38.7740   -5.7600   50.3000 H     348  INH348      0.1670
@<TRIPOS>BOND
     1     5     2    1
     2    14    13    2
     3     2     3    1
     4     2     4    1
     5     2     1    1
     6    13    15    1
     7    13     1    1
     8    16    15    1
     9     1     6    1
    10     6     7    1
    11     7    12   ar
    12     7     8   ar
    13    12    11   ar
    14     8     9   ar
    15    11    10   ar
    16     9    10   ar
