@<TRIPOS>MOLECULE
/tmp/ewbell/vina_1usi_1usi_lig/vina/vina1.pdbqt
 16 16 0 0 0
SMALL
GASTEIGER

@<TRIPOS>ATOM
      1  C1        30.1990   10.1070   48.0770 C.3   348  INH348      0.2840
      2  N1        30.9120    8.8600   48.4170 N.4   348  INH348     -0.0650
      3  H2        30.3130    8.0700   48.2340 H     348  INH348      0.2750
      4  H1        31.7470    8.7860   47.8580 H     348  INH348      0.2750
      5  H3        31.1620    8.8720   49.3940 H     348  INH348      0.2750
      6  C3        28.7230   10.0700   48.4940 C.3   348  INH348      0.0820
      7  C4        28.0980    8.7220   48.3820 C.ar  348  INH348     -0.0560
      8  C6        27.4620    8.1500   49.4610 C.ar  348  INH348      0.0070
      9  C8        26.8720    6.9120   49.4020 C.ar  348  INH348      0.0010
     10  C9        26.8840    6.1860   48.1810 C.ar  348  INH348      0.0000
     11  C7        27.5120    6.7460   47.0450 C.ar  348  INH348      0.0010
     12  C5        28.1140    8.0580   47.1470 C.ar  348  INH348      0.0070
     13  C2        30.8270   11.3240   48.7870 C.2   348  INH348      0.1710
     14  O2        30.4820   12.4220   48.4260 O.2   348  INH348     -0.6480
     15  O1        31.6410   11.0750   49.6890 O.3   348  INH348     -0.7750
     16  H         31.4690   11.3540   50.5670 H     348  INH348      0.1670
@<TRIPOS>BOND
     1    11    12   ar
     2    11    10   ar
     3    12     7   ar
     4     4     2    1
     5     1     2    1
     6     1     6    1
     7     1    13    1
     8    10     9   ar
     9     3     2    1
    10     7     6    1
    11     7     8   ar
    12     2     5    1
    13    14    13    2
    14    13    15    1
    15     9     8   ar
    16    15    16    1
