@<TRIPOS>MOLECULE
/tmp/ewbell/vina_1usi_1usi_lig/vina/vina4.pdbqt
 16 16 0 0 0
SMALL
GASTEIGER

@<TRIPOS>ATOM
      1  C1        38.2530   -5.0090   54.8750 C.3   348  INH348      0.2840
      2  N1        39.6470   -4.6050   55.1420 N.4   348  INH348     -0.0650
      3  H2        39.6990   -4.1510   56.0400 H     348  INH348      0.2750
      4  H1        40.2400   -5.4200   55.1410 H     348  INH348      0.2750
      5  H3        39.9540   -3.9660   54.4250 H     348  INH348      0.2750
      6  C3        38.1230   -5.8630   53.6080 C.3   348  INH348      0.0820
      7  C4        37.3410   -5.2120   52.5200 C.ar  348  INH348     -0.0560
      8  C6        36.7100   -4.0070   52.7310 C.ar  348  INH348      0.0070
      9  C8        35.9800   -3.3710   51.7580 C.ar  348  INH348      0.0010
     10  C9        35.8800   -3.9510   50.4640 C.ar  348  INH348      0.0000
     11  C7        36.5270   -5.1800   50.2010 C.ar  348  INH348      0.0010
     12  C5        37.2950   -5.8120   51.2530 C.ar  348  INH348      0.0070
     13  C2        37.6820   -5.8520   56.0350 C.2   348  INH348      0.1710
     14  O2        38.2270   -6.8980   56.2870 O.2   348  INH348     -0.6480
     15  O1        36.7000   -5.3800   56.6270 O.3   348  INH348     -0.7750
     16  H         36.8240   -4.7800   57.3360 H     348  INH348      0.1670
@<TRIPOS>BOND
     1    11    10   ar
     2    11    12   ar
     3    10     9   ar
     4    12     7   ar
     5     9     8   ar
     6     7     8   ar
     7     7     6    1
     8     6     1    1
     9     5     2    1
    10     1     2    1
    11     1    13    1
    12     4     2    1
    13     2     3    1
    14    13    14    2
    15    13    15    1
    16    15    16    1
