@<TRIPOS>MOLECULE
/tmp/ewbell/vina_1usi_1usi_lig/vina/vina5.pdbqt
 16 16 0 0 0
SMALL
GASTEIGER

@<TRIPOS>ATOM
      1  C1        24.8730   -4.8390   43.7430 C.3   348  INH348      0.2840
      2  N1        25.6500   -4.5760   44.9690 N.4   348  INH348     -0.0650
      3  H2        26.4550   -4.0140   44.7430 H     348  INH348      0.2750
      4  H1        25.0740   -4.0860   45.6360 H     348  INH348      0.2750
      5  H3        25.9530   -5.4510   45.3680 H     348  INH348      0.2750
      6  C3        25.0490   -3.7370   42.6910 C.3   348  INH348      0.0820
      7  C4        23.8460   -2.8760   42.5120 C.ar  348  INH348     -0.0560
      8  C6        22.6770   -3.3970   42.0060 C.ar  348  INH348      0.0070
      9  C8        21.5450   -2.6410   41.8260 C.ar  348  INH348      0.0010
     10  C9        21.5510   -1.2690   42.1950 C.ar  348  INH348      0.0000
     11  C7        22.7270   -0.6990   42.7350 C.ar  348  INH348      0.0010
     12  C5        23.8960   -1.5340   42.9160 C.ar  348  INH348      0.0070
     13  C2        25.3060   -6.1600   43.0740 C.2   348  INH348      0.1710
     14  O2        24.8810   -7.1880   43.5390 O.2   348  INH348     -0.6480
     15  O1        26.0620   -6.0590   42.0960 O.3   348  INH348     -0.7750
     16  H         25.8170   -5.5230   41.3670 H     348  INH348      0.1670
@<TRIPOS>BOND
     1    16    15    1
     2     9     8   ar
     3     9    10   ar
     4     8     7   ar
     5    15    13    1
     6    10    11   ar
     7     7     6    1
     8     7    12   ar
     9     6     1    1
    10    11    12   ar
    11    13    14    2
    12    13     1    1
    13     1     2    1
    14     3     2    1
    15     2     5    1
    16     2     4    1
