@<TRIPOS>MOLECULE
/tmp/ewbell/vina_1usi_1usi_lig/vina/vina2.pdbqt
 16 16 0 0 0
SMALL
GASTEIGER

@<TRIPOS>ATOM
      1  C1        29.8010   10.5680   48.5670 C.3   348  INH348      0.2840
      2  N1        29.8470   12.0120   48.2670 N.4   348  INH348     -0.0650
      3  H2        30.7490   12.2470   47.8850 H     348  INH348      0.2750
      4  H1        29.1280   12.2400   47.5980 H     348  INH348      0.2750
      5  H3        29.6940   12.5360   49.1150 H     348  INH348      0.2750
      6  C3        29.1950    9.7500   47.4190 C.3   348  INH348      0.0820
      7  C4        28.3250    8.6280   47.8720 C.ar  348  INH348     -0.0560
      8  C6        28.1130    7.5330   47.0660 C.ar  348  INH348      0.0070
      9  C8        27.3210    6.4770   47.4430 C.ar  348  INH348      0.0010
     10  C9        26.7080    6.4820   48.7250 C.ar  348  INH348      0.0000
     11  C7        26.9150    7.5800   49.5910 C.ar  348  INH348      0.0010
     12  C5        27.7640    8.6690   49.1570 C.ar  348  INH348      0.0070
     13  C2        31.2150   10.0000   48.8130 C.2   348  INH348      0.1710
     14  O2        32.0530   10.7540   49.2400 O.2   348  INH348     -0.6480
     15  O1        31.3770    8.7980   48.5560 O.3   348  INH348     -0.7750
     16  H         32.2380    8.4280   48.5670 H     348  INH348      0.1670
@<TRIPOS>BOND
     1     8     9   ar
     2     8     7   ar
     3     6     7    1
     4     6     1    1
     5     9    10   ar
     6     4     2    1
     7     7    12   ar
     8     3     2    1
     9     2     1    1
    10     2     5    1
    11    15    16    1
    12    15    13    1
    13     1    13    1
    14    10    11   ar
    15    13    14    2
    16    12    11   ar
