@<TRIPOS>MOLECULE
./ligand/1fcx_lig.pdb
 56 59 0 0 0
SMALL
GASTEIGER

@<TRIPOS>ATOM
      1  C1        34.8120   18.3020   88.3100 C.2   238  INH238      0.3866
      2  C2        35.6880   17.3620   87.6370 C.ar  238  INH238      0.0637
      3  C3        35.7540   16.0480   88.1900 C.ar  238  INH238     -0.0470
      4  C4        36.5760   15.0880   87.6060 C.ar  238  INH238     -0.0532
      5  C5        37.3590   15.3820   86.4520 C.ar  238  INH238     -0.0175
      6  C6        37.2920   16.6660   85.9170 C.ar  238  INH238     -0.0171
      7  C7        36.4480   17.6410   86.5260 C.ar  238  INH238     -0.0399
      8  C8        42.6820   13.8490   81.6850 C.ar  238  INH238     -0.0377
      9  C9        43.0400   13.2180   80.3560 C.3   238  INH238     -0.0095
     10  C10       44.4770   13.5720   79.9670 C.3   238  INH238     -0.0431
     11  C11       44.9220   14.9440   80.2750 C.3   238  INH238     -0.0431
     12  C12       44.8200   15.2950   81.7390 C.3   238  INH238     -0.0096
     13  C13       43.4990   14.7970   82.3090 C.ar  238  INH238     -0.0380
     14  C14       42.0230   13.6600   79.3050 C.3   238  INH238     -0.0558
     15  C15       43.0550   11.6870   80.4240 C.3   238  INH238     -0.0558
     16  C16       44.8160   16.8220   81.6780 C.3   238  INH238     -0.0558
     17  C17       45.9950   14.8610   82.6600 C.3   238  INH238     -0.0558
     18  O1        34.4210   18.1730   89.4200 O.co2 238  INH238     -0.2406
     19  O2        34.4720   19.3250   87.5700 O.co2 238  INH238     -0.2406
     20  C18       38.1860   14.4020   85.8600 C.ar  238  INH238     -0.0481
     21  C19       38.9520   14.6930   84.7340 C.ar  238  INH238     -0.0142
     22  C20       38.8660   15.9890   84.2030 C.ar  238  INH238     -0.0552
     23  C21       38.0520   16.9820   84.7780 C.ar  238  INH238     -0.0537
     24  C22       41.1700   14.0730   83.5500 C.ar  238  INH238     -0.0145
     25  C23       41.4920   13.4880   82.3290 C.ar  238  INH238     -0.0518
     26  C24       43.1310   15.3500   83.5270 C.ar  238  INH238     -0.0574
     27  C25       41.9870   14.9980   84.1470 C.ar  238  INH238     -0.0555
     28  C26       39.8360   13.5480   84.0920 C.3   238  INH238      0.1052
     29  O3        39.9280   12.5170   85.0740 O.3   238  INH238     -0.3825
     30  H1        35.1640   15.7970   89.0640 H     238  INH238      0.0626
     31  H2        36.6210   14.0950   88.0380 H     238  INH238      0.0624
     32  H3        36.4040   18.6360   86.0980 H     238  INH238      0.0632
     33  H4        44.5760   13.4240   78.8820 H     238  INH238      0.0274
     34  H5        45.1470   12.8770   80.4940 H     238  INH238      0.0274
     35  H6        44.3000   15.6490   79.7040 H     238  INH238      0.0274
     36  H7        45.9720   15.0470   79.9650 H     238  INH238      0.0274
     37  H8        41.0110   13.3820   79.6340 H     238  INH238      0.0238
     38  H9        42.2460   13.1650   78.3480 H     238  INH238      0.0238
     39  H10       42.0800   14.7510   79.1760 H     238  INH238      0.0238
     40  H11       42.0550   11.3230   80.7000 H     238  INH238      0.0238
     41  H12       43.7860   11.3610   81.1790 H     238  INH238      0.0238
     42  H13       43.3350   11.2790   79.4420 H     238  INH238      0.0238
     43  H14       44.7440   17.2290   82.6970 H     238  INH238      0.0238
     44  H15       43.9540   17.1630   81.0850 H     238  INH238      0.0238
     45  H16       45.7460   17.1730   81.2080 H     238  INH238      0.0238
     46  H17       46.0240   13.7630   82.7240 H     238  INH238      0.0238
     47  H18       45.8480   15.2830   83.6650 H     238  INH238      0.0238
     48  H19       46.9440   15.2290   82.2420 H     238  INH238      0.0238
     49  H20       38.2250   13.4070   86.2890 H     238  INH238      0.0627
     50  H21       39.4460   16.2330   83.3200 H     238  INH238      0.0621
     51  H22       38.0120   17.9760   84.3490 H     238  INH238      0.0624
     52  H23       40.8270   12.7590   81.8800 H     238  INH238      0.0624
     53  H24       43.7800   16.0840   83.9920 H     238  INH238      0.0621
     54  H25       41.7180   15.4380   85.1000 H     238  INH238      0.0621
     55  H26       39.2920   13.1360   83.2290 H     238  INH238      0.0694
     56  H27       39.0550   12.2600   85.3460 H     238  INH238      0.2107
@<TRIPOS>BOND
     1     1     2    1
     2     1    19   ar
     3     1    18   ar
     4     2     3   ar
     5     2     7   ar
     6     3     4   ar
     7     3    30    1
     8     4     5   ar
     9     4    31    1
    10     5    20   ar
    11     5     6   ar
    12     6     7   ar
    13     6    23   ar
    14     7    32    1
    15     8    25   ar
    16     8    13   ar
    17     8     9    1
    18     9    15    1
    19     9    14    1
    20     9    10    1
    21    10    34    1
    22    10    33    1
    23    10    11    1
    24    11    36    1
    25    11    35    1
    26    11    12    1
    27    12    17    1
    28    12    16    1
    29    12    13    1
    30    13    26   ar
    31    14    39    1
    32    14    38    1
    33    14    37    1
    34    15    42    1
    35    15    41    1
    36    15    40    1
    37    16    45    1
    38    16    44    1
    39    16    43    1
    40    17    48    1
    41    17    47    1
    42    17    46    1
    43    20    21   ar
    44    20    49    1
    45    21    28    1
    46    21    22   ar
    47    22    23   ar
    48    22    50    1
    49    23    51    1
    50    24    27   ar
    51    24    28    1
    52    24    25   ar
    53    25    52    1
    54    26    53    1
    55    26    27   ar
    56    27    54    1
    57    28    55    1
    58    28    29    1
    59    29    56    1
