@<TRIPOS>MOLECULE
/tmp/ewbell/vina_1fcx_1fcx_lig/vina/vina4.pdbqt
 31 34 0 0 0
SMALL
GASTEIGER

@<TRIPOS>ATOM
      1  C26       53.6220    7.9680   91.6330 C.3   238  INH238      0.1840
      2  C19       54.7410    8.9280   92.2090 C.ar  238  INH238     -0.0240
      3  C18       54.3640   10.1600   92.7380 C.ar  238  INH238      0.0220
      4  C5        55.3290   11.0630   93.2380 C.ar  238  INH238     -0.0250
      5  C4        54.9470   12.3230   93.7840 C.ar  238  INH238      0.0130
      6  C6        56.6820   10.7380   93.2110 C.ar  238  INH238     -0.0250
      7  C3        55.8930   13.2200   94.2720 C.ar  238  INH238      0.0190
      8  C2        57.2790   12.8820   94.2400 C.ar  238  INH238      0.0380
      9  C7        57.6420   11.6640   93.7170 C.ar  238  INH238      0.0300
     10  C21       57.0870    9.5020   92.6760 C.ar  238  INH238      0.0130
     11  C20       56.1100    8.6200   92.1810 C.ar  238  INH238      0.0110
     12  C1        58.1970   13.8710   94.7740 C.2   238  INH238      0.1760
     13  O2        58.4900   13.6890   96.0360 O.2   238  INH238     -0.6460
     14  O1        58.6590   14.7610   94.1450 O.3   238  INH238     -0.7730
     15  H         59.2310   15.3790   94.5580 H     238  INH238      0.1670
     16  C22       52.7340    8.6610   90.5940 C.ar  238  INH238     -0.0250
     17  C25       52.6940   10.0040   90.3190 C.ar  238  INH238      0.0110
     18  C24       51.8470   10.4470   89.3690 C.ar  238  INH238      0.0090
     19  C13       51.0240    9.5790   88.6650 C.ar  238  INH238     -0.0430
     20  C8        51.0530    8.2060   88.9270 C.ar  238  INH238     -0.0430
     21  C12       50.1270   10.2330   87.6230 C.3   238  INH238     -0.0200
     22  C23       51.9300    7.7490   89.9170 C.ar  238  INH238      0.0180
     23  C9        50.1740    7.2200   88.1860 C.3   238  INH238     -0.0200
     24  C15       50.9840    6.0950   87.5330 C.3   238  INH238      0.0200
     25  C14       49.1740    6.6100   89.1670 C.3   238  INH238      0.0200
     26  C10       49.4890    7.9020   86.9990 C.3   238  INH238      0.0150
     27  C11       49.0250    9.2860   87.2150 C.3   238  INH238      0.0150
     28  C17       50.9910   10.8520   86.4880 C.3   238  INH238      0.0200
     29  C16       49.3240   11.3630   88.2650 C.3   238  INH238      0.0200
     30  O3        54.2970    6.7930   91.1870 O.3   238  INH238     -0.3860
     31  H27       54.2170    6.1120   91.8460 H     238  INH238      0.2100
@<TRIPOS>BOND
     1    28    21    1
     2    26    27    1
     3    26    23    1
     4    27    21    1
     5    24    23    1
     6    21    29    1
     7    21    19    1
     8    23    20    1
     9    23    25    1
    10    19    20   ar
    11    19    18   ar
    12    20    22   ar
    13    18    17   ar
    14    22    16   ar
    15    17    16   ar
    16    16     1    1
    17    30     1    1
    18    30    31    1
    19     1     2    1
    20    11     2   ar
    21    11    10   ar
    22     2     3   ar
    23    10     6   ar
    24     3     4   ar
    25     6     4   ar
    26     6     9   ar
    27     4     5   ar
    28     9     8   ar
    29     5     7   ar
    30    14    15    1
    31    14    12    1
    32     8     7   ar
    33     8    12    1
    34    12    13    2
