@<TRIPOS>MOLECULE
/tmp/ewbell/vina_1fcx_1fcx_lig/vina/vina2.pdbqt
 31 34 0 0 0
SMALL
GASTEIGER

@<TRIPOS>ATOM
      1  C26       40.1540   13.1570   84.3820 C.3   238  INH238      0.1840
      2  C19       39.3130   14.4220   84.8250 C.ar  238  INH238     -0.0240
      3  C18       38.4340   14.3050   85.8990 C.ar  238  INH238      0.0220
      4  C5        37.6410   15.3980   86.3140 C.ar  238  INH238     -0.0250
      5  C4        36.7420   15.2820   87.4140 C.ar  238  INH238      0.0130
      6  C6        37.7220   16.6210   85.6530 C.ar  238  INH238     -0.0250
      7  C3        35.9530   16.3540   87.8240 C.ar  238  INH238      0.0190
      8  C2        36.0400   17.6040   87.1420 C.ar  238  INH238      0.0380
      9  C7        36.9100   17.7120   86.0840 C.ar  238  INH238      0.0300
     10  C21       38.5980   16.7620   84.5630 C.ar  238  INH238      0.0130
     11  C20       39.3760   15.6590   84.1650 C.ar  238  INH238      0.0110
     12  C1        35.1880   18.6700   87.6370 C.2   238  INH238      0.1760
     13  O2        34.0790   18.2440   88.1840 O.2   238  INH238     -0.6460
     14  O1        35.4540   19.8210   87.5710 O.3   238  INH238     -0.7730
     15  H         35.1230   20.4160   88.2160 H     238  INH238      0.1670
     16  C22       41.0670   13.4500   83.1870 C.ar  238  INH238     -0.0250
     17  C25       41.1800   12.7030   82.0430 C.ar  238  INH238      0.0110
     18  C24       42.0390   13.1070   81.0860 C.ar  238  INH238      0.0090
     19  C13       42.8020   14.2570   81.2310 C.ar  238  INH238     -0.0430
     20  C8        42.6980   15.0360   82.3880 C.ar  238  INH238     -0.0430
     21  C12       43.7220   14.5810   80.0620 C.3   238  INH238     -0.0200
     22  C23       41.8080   14.6110   83.3820 C.ar  238  INH238      0.0180
     23  C9        43.5100   16.2970   82.5920 C.3   238  INH238     -0.0200
     24  C15       42.6280   17.5120   82.9030 C.3   238  INH238      0.0200
     25  C14       44.4850   16.0810   83.7480 C.3   238  INH238      0.0200
     26  C10       44.2170   16.6930   81.2940 C.3   238  INH238      0.0150
     27  C11       44.7620   15.5900   80.4800 C.3   238  INH238      0.0150
     28  C17       42.8810   14.9070   78.7960 C.3   238  INH238      0.0200
     29  C16       44.5970   13.3700   79.7390 C.3   238  INH238      0.0200
     30  O3        40.8060   12.6800   85.5580 O.3   238  INH238     -0.3860
     31  H27       41.4960   13.2850   85.8040 H     238  INH238      0.2100
@<TRIPOS>BOND
     1    28    21    1
     2    29    21    1
     3    21    27    1
     4    21    19    1
     5    27    26    1
     6    18    19   ar
     7    18    17   ar
     8    19    20   ar
     9    26    23    1
    10    17    16   ar
    11    20    23    1
    12    20    22   ar
    13    23    24    1
    14    23    25    1
    15    16    22   ar
    16    16     1    1
    17    11    10   ar
    18    11     2   ar
    19     1     2    1
    20     1    30    1
    21    10     6   ar
    22     2     3   ar
    23    30    31    1
    24     6     9   ar
    25     6     4   ar
    26     3     4   ar
    27     9     8   ar
    28     4     5   ar
    29     8    12    1
    30     8     7   ar
    31     5     7   ar
    32    14    12    1
    33    14    15    1
    34    12    13    2
