@<TRIPOS>MOLECULE
/tmp/ewbell/vina_1fcx_1fcx_lig/vina/vina5.pdbqt
 31 34 0 0 0
SMALL
GASTEIGER

@<TRIPOS>ATOM
      1  C26       49.6880   23.3770   98.2190 C.3   238  INH238      0.1840
      2  C19       49.6610   22.2060   97.1550 C.ar  238  INH238     -0.0240
      3  C18       49.1010   22.4460   95.9030 C.ar  238  INH238      0.0220
      4  C5        49.0290   21.4240   94.9300 C.ar  238  INH238     -0.0250
      5  C4        48.4590   21.6660   93.6460 C.ar  238  INH238      0.0130
      6  C6        49.5180   20.1500   95.2060 C.ar  238  INH238     -0.0250
      7  C3        48.3790   20.6620   92.6850 C.ar  238  INH238      0.0190
      8  C2        48.8800   19.3580   92.9740 C.ar  238  INH238      0.0380
      9  C7        49.4320   19.1300   94.2120 C.ar  238  INH238      0.0300
     10  C21       50.0820   19.8820   96.4650 C.ar  238  INH238      0.0130
     11  C20       50.1410   20.9140   97.4200 C.ar  238  INH238      0.0110
     12  C1        48.7630   18.3720   91.9160 C.2   238  INH238      0.1760
     13  O2        49.1300   17.1690   92.2750 O.2   238  INH238     -0.6460
     14  O1        48.3660   18.6070   90.8260 O.3   238  INH238     -0.7730
     15  H         48.9370   19.0000   90.1940 H     238  INH238      0.1670
     16  C22       48.2820   23.7990   98.6600 C.ar  238  INH238     -0.0250
     17  C25       47.8070   23.8390   99.9460 C.ar  238  INH238      0.0110
     18  C24       46.5360   24.2360  100.1560 C.ar  238  INH238      0.0090
     19  C13       45.7060   24.6060   99.1080 C.ar  238  INH238     -0.0430
     20  C8        46.1720   24.5770   97.7900 C.ar  238  INH238     -0.0430
     21  C12       44.3000   25.0320   99.5090 C.3   238  INH238     -0.0200
     22  C23       47.4910   24.1600   97.5730 C.ar  238  INH238      0.0180
     23  C9        45.3040   24.9710   96.6130 C.3   238  INH238     -0.0200
     24  C15       45.9480   26.0670   95.7570 C.3   238  INH238      0.0200
     25  C14       45.0560   23.7400   95.7430 C.3   238  INH238      0.0200
     26  C10       44.0050   25.6160   97.1010 C.3   238  INH238      0.0150
     27  C11       43.3900   25.0270   98.3050 C.3   238  INH238      0.0150
     28  C17       44.3590   26.3370  100.3530 C.3   238  INH238      0.0200
     29  C16       43.6560   23.9480  100.3720 C.3   238  INH238      0.0200
     30  O3        50.5630   22.9500   99.2610 O.3   238  INH238     -0.3860
     31  H27       50.1330   23.0640  100.1020 H     238  INH238      0.2100
@<TRIPOS>BOND
     1    15    14    1
     2    14    12    1
     3    12    13    2
     4    12     8    1
     5     7     8   ar
     6     7     5   ar
     7     8     9   ar
     8     5     4   ar
     9     9     6   ar
    10     4     6   ar
    11     4     3   ar
    12     6    10   ar
    13    25    23    1
    14    24    23    1
    15     3     2   ar
    16    10    11   ar
    17    23    26    1
    18    23    20    1
    19    26    27    1
    20     2    11   ar
    21     2     1    1
    22    22    20   ar
    23    22    16   ar
    24    20    19   ar
    25     1    16    1
    26     1    30    1
    27    27    21    1
    28    16    17   ar
    29    19    21    1
    30    19    18   ar
    31    30    31    1
    32    21    28    1
    33    21    29    1
    34    17    18   ar
