@<TRIPOS>MOLECULE
/tmp/ewbell/vina_1fcx_1fcx_lig/vina/vina3.pdbqt
 31 34 0 0 0
SMALL
GASTEIGER

@<TRIPOS>ATOM
      1  C26       47.5130   24.2650   95.4270 C.3   238  INH238      0.1840
      2  C19       46.3420   24.2680   96.4920 C.ar  238  INH238     -0.0240
      3  C18       46.6600   24.3900   97.8430 C.ar  238  INH238      0.0220
      4  C5        45.6530   24.3690   98.8330 C.ar  238  INH238     -0.0250
      5  C4        45.9740   24.4960  100.2160 C.ar  238  INH238      0.0130
      6  C6        44.3150   24.2260   98.4760 C.ar  238  INH238     -0.0250
      7  C3        44.9870   24.4710  101.1970 C.ar  238  INH238      0.0190
      8  C2        43.6170   24.3220  100.8250 C.ar  238  INH238      0.0380
      9  C7        43.3120   24.2030   99.4900 C.ar  238  INH238      0.0300
     10  C21       43.9700   24.0960   97.1200 C.ar  238  INH238      0.0130
     11  C20       44.9900   24.1150   96.1510 C.ar  238  INH238      0.0110
     12  C1        42.6520   24.3110  101.9090 C.2   238  INH238      0.1760
     13  O2        42.4270   23.1200  102.4000 O.2   238  INH238     -0.6460
     14  O1        42.1140   25.2760  102.3330 O.3   238  INH238     -0.7730
     15  H         41.4150   25.1890  102.9520 H     238  INH238      0.1670
     16  C22       47.7840   22.8670   94.8600 C.ar  238  INH238     -0.0250
     17  C25       47.0540   22.2210   93.8970 C.ar  238  INH238      0.0110
     18  C24       47.4340   20.9860   93.5130 C.ar  238  INH238      0.0090
     19  C13       48.5440   20.3620   94.0650 C.ar  238  INH238     -0.0430
     20  C8        49.3050   21.0050   95.0450 C.ar  238  INH238     -0.0430
     21  C12       48.8450   18.9700   93.5250 C.3   238  INH238     -0.0200
     22  C23       48.9050   22.2870   95.4450 C.ar  238  INH238      0.0180
     23  C9        50.5230   20.3650   95.6770 C.3   238  INH238     -0.0200
     24  C15       51.7720   21.2450   95.5540 C.3   238  INH238      0.0200
     25  C14       50.2400   20.1070   97.1560 C.3   238  INH238      0.0200
     26  C10       50.9090   19.0910   94.9220 C.3   238  INH238      0.0150
     27  C11       49.7960   18.2480   94.4470 C.3   238  INH238      0.0150
     28  C17       49.2340   19.0550   92.0220 C.3   238  INH238      0.0200
     29  C16       47.6000   18.0900   93.6350 C.3   238  INH238      0.0200
     30  O3        47.1830   25.2700   94.4690 O.3   238  INH238     -0.3860
     31  H27       46.5020   24.9440   93.8910 H     238  INH238      0.2100
@<TRIPOS>BOND
     1    28    21    1
     2    18    17   ar
     3    18    19   ar
     4    21    29    1
     5    21    19    1
     6    21    27    1
     7    31    30    1
     8    17    16   ar
     9    19    20   ar
    10    27    26    1
    11    30     1    1
    12    16     1    1
    13    16    22   ar
    14    26    23    1
    15    20    22   ar
    16    20    23    1
    17     1     2    1
    18    24    23    1
    19    23    25    1
    20    11     2   ar
    21    11    10   ar
    22     2     3   ar
    23    10     6   ar
    24     3     4   ar
    25     6     4   ar
    26     6     9   ar
    27     4     5   ar
    28     9     8   ar
    29     5     7   ar
    30     8     7   ar
    31     8    12    1
    32    12    14    1
    33    12    13    2
    34    14    15    1
