@<TRIPOS>MOLECULE
/tmp/ewbell/vina_1fcx_1fcx_lig/vina/vina1.pdbqt
 31 34 0 0 0
SMALL
GASTEIGER

@<TRIPOS>ATOM
      1  C26       39.9670   13.4530   84.2650 C.3   238  INH238      0.1840
      2  C19       39.0530   14.6260   84.8070 C.ar  238  INH238     -0.0240
      3  C18       38.2410   14.3910   85.9140 C.ar  238  INH238      0.0220
      4  C5        37.3860   15.3970   86.4170 C.ar  238  INH238     -0.0250
      5  C4        36.5560   15.1600   87.5520 C.ar  238  INH238      0.0130
      6  C6        37.3380   16.6500   85.8130 C.ar  238  INH238     -0.0250
      7  C3        35.7070   16.1460   88.0490 C.ar  238  INH238      0.0190
      8  C2        35.6610   17.4280   87.4240 C.ar  238  INH238      0.0380
      9  C7        36.4660   17.6520   86.3330 C.ar  238  INH238      0.0300
     10  C21       38.1440   16.9090   84.6910 C.ar  238  INH238      0.0130
     11  C20       38.9850   15.8920   84.2050 C.ar  238  INH238      0.0110
     12  C1        34.7540   18.3980   88.0090 C.2   238  INH238      0.1760
     13  O2        33.7240   17.8600   88.6080 O.2   238  INH238     -0.6460
     14  O1        34.9150   19.5700   87.9690 O.3   238  INH238     -0.7730
     15  H         35.7280   19.9210   87.6620 H     238  INH238      0.1670
     16  C22       41.2620   13.9680   83.6270 C.ar  238  INH238     -0.0250
     17  C25       42.1140   14.9060   84.1500 C.ar  238  INH238      0.0110
     18  C24       43.2140   15.2450   83.4500 C.ar  238  INH238      0.0090
     19  C13       43.5040   14.6670   82.2230 C.ar  238  INH238     -0.0430
     20  C8        42.6500   13.7060   81.6730 C.ar  238  INH238     -0.0430
     21  C12       44.7840   15.1540   81.5580 C.3   238  INH238     -0.0200
     22  C23       41.5050   13.3570   82.4000 C.ar  238  INH238      0.0180
     23  C9        42.9220   13.0470   80.3370 C.3   238  INH238     -0.0200
     24  C15       42.9450   11.5180   80.4360 C.3   238  INH238      0.0200
     25  C14       41.8380   13.4660   79.3450 C.3   238  INH238      0.0200
     26  C10       44.3300   13.3940   79.8480 C.3   238  INH238      0.0150
     27  C11       44.7920   14.7720   80.0980 C.3   238  INH238      0.0150
     28  C17       46.0170   14.7400   82.4100 C.3   238  INH238      0.0200
     29  C16       44.7730   16.6790   81.4650 C.3   238  INH238      0.0200
     30  O3        40.1300   12.5410   85.3500 O.3   238  INH238     -0.3860
     31  H27       40.9540   12.0770   85.2520 H     238  INH238      0.2100
@<TRIPOS>BOND
     1    25    23    1
     2    26    27    1
     3    26    23    1
     4    27    21    1
     5    23    24    1
     6    23    20    1
     7    29    21    1
     8    21    19    1
     9    21    28    1
    10    20    19   ar
    11    20    22   ar
    12    19    18   ar
    13    22    16   ar
    14    18    17   ar
    15    16    17   ar
    16    16     1    1
    17    11    10   ar
    18    11     2   ar
    19     1     2    1
    20     1    30    1
    21    10     6   ar
    22     2     3   ar
    23    31    30    1
    24     6     9   ar
    25     6     4   ar
    26     3     4   ar
    27     9     8   ar
    28     4     5   ar
    29     8    12    1
    30     8     7   ar
    31     5     7   ar
    32    15    14    1
    33    14    12    1
    34    12    13    2
