@<TRIPOS>MOLECULE
./ligand/2ovv_lig.pdb
 53 57 0 0 0
SMALL
GASTEIGER

@<TRIPOS>ATOM
      1  C1        14.0300   16.0490   44.5000 C.ar  309  INH309      0.0098
      2  C2        11.9630   18.9340   45.6820 C.ar  309  INH309      0.1325
      3  C3        12.5080   17.9450   44.7740 C.ar  309  INH309      0.0440
      4  C4        13.2430   18.0350   47.3940 C.ar  309  INH309      0.1187
      5  C5        11.6520   23.4010   42.9090 C.ar  309  INH309      0.1216
      6  C6         9.6890   21.8050   45.6750 C.3   309  INH309      0.0015
      7  C7        11.2760   20.7050   44.1440 C.3   309  INH309      0.0506
      8  C8        10.4610   20.6890   46.4120 C.3   309  INH309      0.0171
      9  C9        12.8740   23.9740   40.4070 C.ar  309  INH309     -0.0177
     10  C10       11.4690   17.4120   40.5380 C.3   309  INH309      0.0790
     11  O1        12.4910   16.6520   41.2220 O.3   309  INH309     -0.4914
     12  C11       12.7360   16.8470   42.5880 C.ar  309  INH309      0.1623
     13  C12       13.6810   15.9580   43.1560 C.ar  309  INH309      0.1635
     14  O2        14.1790   15.0330   42.2960 O.3   309  INH309     -0.4914
     15  C13       15.3520   14.3720   42.7200 C.3   309  INH309      0.0790
     16  C14       12.1710   17.8150   43.3970 C.ar  309  INH309     -0.0038
     17  C15       13.4460   17.0310   45.3180 C.ar  309  INH309      0.0797
     18  N1        13.7720   17.1170   46.6110 N.ar  309  INH309     -0.2352
     19  N2        12.3590   18.9220   46.9600 N.ar  309  INH309     -0.2201
     20  N3        10.9920   19.8480   45.3130 N.pl3 309  INH309     -0.3110
     21  C16       10.3440   21.9620   44.2710 C.3   309  INH309      0.1172
     22  O3        11.1040   23.1950   44.1640 O.3   309  INH309     -0.4872
     23  C17       12.4780   24.5290   42.7510 C.ar  309  INH309     -0.0193
     24  C18       13.0710   24.8060   41.5440 C.ar  309  INH309     -0.0506
     25  C19       13.4560   24.2520   39.1570 C.ar  309  INH309     -0.0540
     26  C20       12.0410   22.8210   40.5490 C.ar  309  INH309     -0.0144
     27  C21       11.4450   22.5700   41.8030 C.ar  309  INH309     -0.0122
     28  C22       11.8030   21.9570   39.4600 C.ar  309  INH309     -0.0539
     29  C23       12.3650   22.2440   38.2660 C.ar  309  INH309     -0.0612
     30  C24       13.1920   23.3850   38.1240 C.ar  309  INH309     -0.0612
     31  H1        14.7550   15.3600   44.9170 H     309  INH309      0.0677
     32  H2        13.5430   18.0660   48.4350 H     309  INH309      0.1048
     33  H3         9.7640   22.7490   46.2350 H     309  INH309      0.0317
     34  H4         8.6300   21.5250   45.5690 H     309  INH309      0.0317
     35  H5        11.0560   20.1620   43.2130 H     309  INH309      0.0500
     36  H6        12.3320   21.0140   44.1470 H     309  INH309      0.0500
     37  H7         9.7880   20.1090   47.0610 H     309  INH309      0.0465
     38  H8        11.2790   21.1100   47.0150 H     309  INH309      0.0465
     39  H9        11.4350   17.1120   39.4800 H     309  INH309      0.0660
     40  H10       11.7010   18.4850   40.6080 H     309  INH309      0.0660
     41  H11       10.4930   17.2170   41.0060 H     309  INH309      0.0660
     42  H12       15.6640   13.6500   41.9510 H     309  INH309      0.0660
     43  H13       15.1530   13.8410   43.6630 H     309  INH309      0.0660
     44  H14       16.1530   15.1100   42.8760 H     309  INH309      0.0660
     45  H15       11.4470   18.4980   42.9680 H     309  INH309      0.0663
     46  H16        9.5730   21.9500   43.4860 H     309  INH309      0.0749
     47  H17       12.6490   25.1890   43.5940 H     309  INH309      0.0654
     48  H18       13.7050   25.6810   41.4550 H     309  INH309      0.0625
     49  H19       14.0900   25.1190   39.0140 H     309  INH309      0.0624
     50  H20       10.8040   21.7030   41.9130 H     309  INH309      0.0660
     51  H21       11.1800   21.0780   39.5790 H     309  INH309      0.0624
     52  H22       12.1830   21.5990   37.4140 H     309  INH309      0.0618
     53  H23       13.6370   23.5830   37.1560 H     309  INH309      0.0618
@<TRIPOS>BOND
     1     1    13   ar
     2     1    31    1
     3     1    17   ar
     4     2     3   ar
     5     2    20    1
     6     2    19   ar
     7     3    17   ar
     8     3    16   ar
     9     4    19   ar
    10     4    32    1
    11     4    18   ar
    12     5    22    1
    13     5    27   ar
    14     5    23   ar
    15     6    21    1
    16     6    34    1
    17     6    33    1
    18     6     8    1
    19     7    20    1
    20     7    36    1
    21     7    35    1
    22     7    21    1
    23     8    20    1
    24     8    38    1
    25     8    37    1
    26     9    24   ar
    27     9    26   ar
    28     9    25   ar
    29    10    41    1
    30    10    40    1
    31    10    39    1
    32    10    11    1
    33    11    12    1
    34    12    16   ar
    35    12    13   ar
    36    13    14    1
    37    14    15    1
    38    15    44    1
    39    15    43    1
    40    15    42    1
    41    16    45    1
    42    17    18   ar
    43    21    46    1
    44    21    22    1
    45    23    47    1
    46    23    24   ar
    47    24    48    1
    48    25    49    1
    49    25    30   ar
    50    26    28   ar
    51    26    27   ar
    52    27    50    1
    53    28    29   ar
    54    28    51    1
    55    29    30   ar
    56    29    52    1
    57    30    53    1
