@<TRIPOS>MOLECULE
/tmp/ewbell/vina_2ovv_2ovv_lig/vina/vina1.pdbqt
 32 36 0 0 0
SMALL
GASTEIGER

@<TRIPOS>ATOM
      1  C1         8.0180   23.5010   50.8560 C.2   309  INH309      0.0700
      2  C2        10.4350   20.7640   50.0420 C.2   309  INH309      0.0960
      3  C3         9.8350   22.0830   50.0350 C.2   309  INH309      0.0320
      4  C4         8.7740   20.0420   51.4910 C.3   309  INH309      0.1820
      5  C11        9.7010   24.4390   49.3540 C.2   309  INH309      0.1020
      6  C12        8.5270   24.5770   50.1340 C.2   309  INH309      0.1030
      7  C14       10.3290   23.2090   49.3170 C.3   309  INH309      0.0560
      8  C15        8.6670   22.2540   50.8200 C.2   309  INH309      0.0490
      9  N1         8.1870   21.2210   51.5170 N.pl3 309  INH309     -0.3510
     10  H1         7.3480   21.3480   52.0830 H     309  INH309      0.1660
     11  N2         9.8700   19.8040   50.7840 N.pl3 309  INH309     -0.3420
     12  H2        10.2900   18.8750   50.8060 H     309  INH309      0.1670
     13  N3        11.6110   20.4620   49.3790 N.pl3 309  INH309     -0.2660
     14  C7        11.5420   19.4550   48.3000 C.3   309  INH309      0.1290
     15  C16       12.9990   18.9010   48.1090 C.3   309  INH309      0.1430
     16  C6        13.8020   19.5400   49.2800 C.3   309  INH309      0.0480
     17  C8        12.7720   20.1600   50.2490 C.3   309  INH309      0.0990
     18  O3        13.0230   17.4500   48.1660 O.3   309  INH309     -0.3450
     19  C5        13.4730   16.8570   46.9980 C.ar  309  INH309      0.0700
     20  C21       12.9710   17.1300   45.7210 C.ar  309  INH309      0.0490
     21  C20       13.4590   16.4840   44.5650 C.ar  309  INH309     -0.0230
     22  C9        14.5120   15.5280   44.7100 C.ar  309  INH309     -0.0260
     23  C22       12.9250   16.7920   43.2970 C.ar  309  INH309      0.0120
     24  C18       15.0080   15.2660   46.0170 C.ar  309  INH309      0.0150
     25  C19       15.0260   14.8930   43.5650 C.ar  309  INH309      0.0120
     26  C17       14.5060   15.9110   47.1210 C.ar  309  INH309      0.0370
     27  C24       14.4780   15.2280   42.3500 C.ar  309  INH309      0.0010
     28  C23       13.4360   16.1780   42.2080 C.ar  309  INH309      0.0010
     29  O1        10.0900   25.5980   48.6680 O.2   309  INH309     -0.3530
     30  C10       10.0160   25.6640   47.2260 C.3   309  INH309      0.2100
     31  O2         7.9790   25.8190   50.1230 O.2   309  INH309     -0.3530
     32  C13        6.6810   25.9110   49.5750 C.3   309  INH309      0.2100
@<TRIPOS>BOND
     1    28    27   ar
     2    28    23   ar
     3    27    25   ar
     4    23    21   ar
     5    25    22   ar
     6    21    22   ar
     7    21    20   ar
     8    22    24   ar
     9    20    19   ar
    10    24    26   ar
    11    19    26   ar
    12    19    18    1
    13    30    29    1
    14    15    18    1
    15    15    14    1
    16    15    16    1
    17    14    13    1
    18    29     5    1
    19    16    17    1
    20     7     5    1
    21     7     3    1
    22     5     6    2
    23    13     2    1
    24    13    17    1
    25    32    31    1
    26     3     2    2
    27     3     8    1
    28     2    11    1
    29    31     6    1
    30     6     1    1
    31    11    12    1
    32    11     4    1
    33     8     1    2
    34     8     9    1
    35     4     9    1
    36     9    10    1
