@<TRIPOS>MOLECULE
/tmp/ewbell/vina_2ovv_2ovv_lig/vina/vina5.pdbqt
 32 36 0 0 0
SMALL
GASTEIGER

@<TRIPOS>ATOM
      1  C1         8.1770   22.3690   51.1680 C.2   309  INH309      0.0700
      2  C2         8.7110   22.7340   47.4840 C.2   309  INH309      0.0960
      3  C3         8.8260   22.1790   48.8170 C.2   309  INH309      0.0320
      4  C4         7.2970   24.3740   48.3140 C.3   309  INH309      0.1820
      5  C11        9.6570   20.5570   50.4660 C.2   309  INH309      0.1020
      6  C12        8.9390   21.2450   51.4740 C.2   309  INH309      0.1030
      7  C14        9.5900   21.0280   49.1690 C.3   309  INH309      0.0560
      8  C15        8.1070   22.8380   49.8460 C.2   309  INH309      0.0490
      9  N1         7.3690   23.9110   49.5460 N.pl3 309  INH309     -0.3510
     10  H1         6.8510   24.3830   50.2870 H     309  INH309      0.1660
     11  N2         7.9380   23.8100   47.3000 N.pl3 309  INH309     -0.3420
     12  H2         7.8400   24.2030   46.3640 H     309  INH309      0.1670
     13  N3         9.3020   22.1630   46.3710 N.pl3 309  INH309     -0.2660
     14  C7         9.3550   20.6880   46.3130 C.3   309  INH309      0.1290
     15  C16       10.5040   20.3180   45.3090 C.3   309  INH309      0.1430
     16  C6        11.1760   21.6850   44.9870 C.3   309  INH309      0.0480
     17  C8        10.6300   22.7100   46.0050 C.3   309  INH309      0.0990
     18  O3        11.4420   19.3820   45.9030 O.3   309  INH309     -0.3450
     19  C5        11.9940   18.4970   44.9910 C.ar  309  INH309      0.0700
     20  C21       12.9520   17.5280   45.3010 C.ar  309  INH309      0.0490
     21  C20       13.4910   16.6600   44.3270 C.ar  309  INH309     -0.0230
     22  C9        13.0260   16.7730   42.9800 C.ar  309  INH309     -0.0260
     23  C22       14.4550   15.6950   44.6860 C.ar  309  INH309      0.0120
     24  C18       12.0510   17.7670   42.6860 C.ar  309  INH309      0.0150
     25  C19       13.5360   15.9000   42.0010 C.ar  309  INH309      0.0120
     26  C17       11.5510   18.5970   43.6590 C.ar  309  INH309      0.0370
     27  C24       14.4690   14.9730   42.3990 C.ar  309  INH309      0.0010
     28  C23       14.9270   14.8610   43.7340 C.ar  309  INH309      0.0010
     29  O1        10.3950   19.4540   50.9170 O.2   309  INH309     -0.3530
     30  C10       11.6470   19.0960   50.2910 C.3   309  INH309      0.2100
     31  O2         9.0520   20.7100   52.7180 O.2   309  INH309     -0.3530
     32  C13        7.9310   20.8790   53.5600 C.3   309  INH309      0.2100
@<TRIPOS>BOND
     1    25    27   ar
     2    25    22   ar
     3    27    28   ar
     4    24    22   ar
     5    24    26   ar
     6    22    21   ar
     7    26    19   ar
     8    28    23   ar
     9    21    23   ar
    10    21    20   ar
    11    16    15    1
    12    16    17    1
    13    19    20   ar
    14    19    18    1
    15    15    18    1
    16    15    14    1
    17    17    13    1
    18    14    13    1
    19    12    11    1
    20    13     2    1
    21    11     2    1
    22    11     4    1
    23     2     3    2
    24     4     9    1
    25     3     7    1
    26     3     8    1
    27     7     5    1
    28     9     8    1
    29     9    10    1
    30     8     1    2
    31    30    29    1
    32     5    29    1
    33     5     6    2
    34     1     6    1
    35     6    31    1
    36    31    32    1
