@<TRIPOS>MOLECULE
/tmp/ewbell/vina_2ovv_2ovv_lig/vina/vina2.pdbqt
 32 36 0 0 0
SMALL
GASTEIGER

@<TRIPOS>ATOM
      1  C1         8.1660   23.3130   50.8160 C.2   309  INH309      0.0700
      2  C2         9.5570   19.8400   50.7950 C.2   309  INH309      0.0960
      3  C3         9.1620   21.1410   50.2920 C.2   309  INH309      0.0320
      4  C4         8.8210   20.4590   52.9060 C.3   309  INH309      0.1820
      5  C11        8.9120   22.8430   48.5380 C.2   309  INH309      0.1020
      6  C12        8.3260   23.7100   49.4920 C.2   309  INH309      0.1030
      7  C14        9.3160   21.5870   48.9480 C.3   309  INH309      0.0560
      8  C15        8.5860   22.0370   51.2280 C.2   309  INH309      0.0490
      9  N1         8.4420   21.6540   52.4990 N.pl3 309  INH309     -0.3510
     10  H1         8.0290   22.3010   53.1710 H     309  INH309      0.1660
     11  N2         9.3690   19.5680   52.0910 N.pl3 309  INH309     -0.3420
     12  H2         9.6540   18.6610   52.4590 H     309  INH309      0.1670
     13  N3        10.1900   18.8870   50.0180 N.pl3 309  INH309     -0.2660
     14  C7        11.5920   19.1470   49.6320 C.3   309  INH309      0.1290
     15  C16       11.8800   18.2680   48.3640 C.3   309  INH309      0.1430
     16  C6        10.4900   17.6730   47.9940 C.3   309  INH309      0.0480
     17  C8         9.4350   18.4380   48.8240 C.3   309  INH309      0.0990
     18  O3        12.4320   19.0660   47.2830 O.3   309  INH309     -0.3450
     19  C5        12.6860   18.3400   46.1320 C.ar  309  INH309      0.0700
     20  C21       13.6310   17.3150   46.0290 C.ar  309  INH309      0.0490
     21  C20       13.8590   16.6160   44.8240 C.ar  309  INH309     -0.0230
     22  C9        13.0820   16.9650   43.6760 C.ar  309  INH309     -0.0260
     23  C22       14.8220   15.5880   44.7670 C.ar  309  INH309      0.0120
     24  C18       12.1250   18.0100   43.8020 C.ar  309  INH309      0.0150
     25  C19       13.2790   16.2620   42.4730 C.ar  309  INH309      0.0120
     26  C17       11.9330   18.6720   44.9900 C.ar  309  INH309      0.0370
     27  C24       14.2250   15.2640   42.4660 C.ar  309  INH309      0.0010
     28  C23       14.9920   14.9190   43.6060 C.ar  309  INH309      0.0010
     29  O1         8.9970   23.3660   47.2400 O.2   309  INH309     -0.3530
     30  C10        8.1120   22.9010   46.1960 C.3   309  INH309      0.2100
     31  O2         7.9670   24.9280   49.0080 O.2   309  INH309     -0.3530
     32  C13        6.6810   25.3780   49.3800 C.3   309  INH309      0.2100
@<TRIPOS>BOND
     1    27    25   ar
     2    27    28   ar
     3    25    22   ar
     4    28    23   ar
     5    22    24   ar
     6    22    21   ar
     7    24    26   ar
     8    23    21   ar
     9    21    20   ar
    10    26    19   ar
    11    20    19   ar
    12    19    18    1
    13    30    29    1
    14    29     5    1
    15    18    15    1
    16    16    15    1
    17    16    17    1
    18    15    14    1
    19     5     7    1
    20     5     6    2
    21    17    13    1
    22     7     3    1
    23    31    32    1
    24    31     6    1
    25     6     1    1
    26    14    13    1
    27    13     2    1
    28     3     2    2
    29     3     8    1
    30     2    11    1
    31     1     8    2
    32     8     9    1
    33    11    12    1
    34    11     4    1
    35     9     4    1
    36     9    10    1
