@<TRIPOS>MOLECULE
/tmp/ewbell/vina_2ovv_2ovv_lig/vina/vina4.pdbqt
 32 36 0 0 0
SMALL
GASTEIGER

@<TRIPOS>ATOM
      1  C1        15.0040   15.1460   44.7780 C.2   309  INH309      0.0700
      2  C2        13.0130   17.3500   47.0530 C.2   309  INH309      0.0960
      3  C3        13.4640   16.7360   45.8200 C.2   309  INH309      0.0320
      4  C4        14.5520   16.0710   48.2250 C.3   309  INH309      0.1820
      5  C11       13.4270   16.3900   43.3880 C.2   309  INH309      0.1020
      6  C12       14.4740   15.4470   43.5270 C.2   309  INH309      0.1030
      7  C14       12.9430   17.0120   44.5230 C.3   309  INH309      0.0560
      8  C15       14.5020   15.7770   45.9300 C.2   309  INH309      0.0490
      9  N1        15.0010   15.4850   47.1330 N.pl3 309  INH309     -0.3510
     10  H1        15.7470   14.7930   47.2100 H     309  INH309      0.1660
     11  N2        13.5830   16.9750   48.2030 N.pl3 309  INH309     -0.3420
     12  H2        13.2650   17.3920   49.0790 H     309  INH309      0.1670
     13  N3        11.9660   18.2530   47.1120 N.pl3 309  INH309     -0.2660
     14  C7        12.2930   19.6490   47.4670 C.3   309  INH309      0.1290
     15  C16       10.9670   20.3000   47.9990 C.3   309  INH309      0.1430
     16  C6         9.9680   19.1080   48.0790 C.3   309  INH309      0.0480
     17  C8        10.7930   17.8140   47.9040 C.3   309  INH309      0.0990
     18  O3        11.1690   20.9240   49.2950 O.3   309  INH309     -0.3450
     19  C5        10.4490   22.0940   49.4640 C.ar  309  INH309      0.0700
     20  C21       10.3200   23.0970   48.4990 C.ar  309  INH309      0.0490
     21  C20        9.5830   24.2790   48.7310 C.ar  309  INH309     -0.0230
     22  C9         8.9380   24.4430   49.9960 C.ar  309  INH309     -0.0260
     23  C22        9.4780   25.2630   47.7270 C.ar  309  INH309      0.0120
     24  C18        9.0820   23.4100   50.9650 C.ar  309  INH309      0.0150
     25  C19        8.1800   25.6040   50.2360 C.ar  309  INH309      0.0120
     26  C17        9.8100   22.2750   50.7050 C.ar  309  INH309      0.0370
     27  C24        8.1020   26.5330   49.2260 C.ar  309  INH309      0.0010
     28  C23        8.7400   26.3670   47.9730 C.ar  309  INH309      0.0010
     29  O1        13.0020   16.6070   42.0700 O.2   309  INH309     -0.3530
     30  C10       11.9070   17.5070   41.7850 C.3   309  INH309      0.2100
     31  O2        14.8830   14.8760   42.3640 O.2   309  INH309     -0.3530
     32  C13       14.9490   13.4650   42.3660 C.3   309  INH309      0.2100
@<TRIPOS>BOND
     1    30    29    1
     2    29     5    1
     3    31    32    1
     4    31     6    1
     5     5     6    2
     6     5     7    1
     7     6     1    1
     8     7     3    1
     9     1     8    2
    10     3     8    1
    11     3     2    2
    12     8     9    1
    13     2    13    1
    14     2    11    1
    15    13    14    1
    16    13    17    1
    17     9    10    1
    18     9     4    1
    19    14    15    1
    20    23    28   ar
    21    23    21   ar
    22    17    16    1
    23    28    27   ar
    24    15    16    1
    25    15    18    1
    26    11     4    1
    27    11    12    1
    28    20    21   ar
    29    20    19   ar
    30    21    22   ar
    31    27    25   ar
    32    18    19    1
    33    19    26   ar
    34    22    25   ar
    35    22    24   ar
    36    26    24   ar
