@<TRIPOS>MOLECULE
/tmp/ewbell/vina_2ovv_2ovv_lig/vina/vina3.pdbqt
 32 36 0 0 0
SMALL
GASTEIGER

@<TRIPOS>ATOM
      1  C1        14.9930   14.9450   44.4310 C.2   309  INH309      0.0700
      2  C2        12.9380   17.2160   46.5780 C.2   309  INH309      0.0960
      3  C3        13.4150   16.5560   45.3800 C.2   309  INH309      0.0320
      4  C4        14.4780   16.0140   47.8270 C.3   309  INH309      0.1820
      5  C11       13.4180   16.1020   42.9650 C.2   309  INH309      0.1020
      6  C12       14.4770   15.1830   43.1600 C.2   309  INH309      0.1030
      7  C14       12.9090   16.7660   44.0650 C.3   309  INH309      0.0560
      8  C15       14.4660   15.6180   45.5460 C.2   309  INH309      0.0490
      9  N1        14.9520   15.3870   46.7680 N.pl3 309  INH309     -0.3510
     10  H1        15.7060   14.7110   46.8860 H     309  INH309      0.1660
     11  N2        13.4960   16.9010   47.7520 N.pl3 309  INH309     -0.3420
     12  H2        13.1600   17.3510   48.6040 H     309  INH309      0.1670
     13  N3        11.8770   18.1040   46.5830 N.pl3 309  INH309     -0.2660
     14  C7        12.1940   19.5410   46.4510 C.3   309  INH309      0.1290
     15  C16       10.9630   20.3280   47.0270 C.3   309  INH309      0.1430
     16  C6        10.0610   19.2180   47.6420 C.3   309  INH309      0.0480
     17  C8        10.9010   17.9230   47.6840 C.3   309  INH309      0.0990
     18  O3        11.3780   21.3000   48.0230 O.3   309  INH309     -0.3450
     19  C5        10.5130   21.3930   49.1000 C.ar  309  INH309      0.0700
     20  C21       10.6650   20.7020   50.3060 C.ar  309  INH309      0.0490
     21  C20        9.7440   20.8240   51.3680 C.ar  309  INH309     -0.0230
     22  C9         8.6240   21.6980   51.2030 C.ar  309  INH309     -0.0260
     23  C22        9.9380   20.1090   52.5670 C.ar  309  INH309      0.0120
     24  C18        8.4880   22.3920   49.9680 C.ar  309  INH309      0.0150
     25  C19        7.7090   21.8490   52.2600 C.ar  309  INH309      0.0120
     26  C17        9.4030   22.2450   48.9550 C.ar  309  INH309      0.0370
     27  C24        7.9420   21.1360   53.4120 C.ar  309  INH309      0.0010
     28  C23        9.0530   20.2730   53.5740 C.ar  309  INH309      0.0010
     29  O1        13.0090   16.2550   41.6330 O.2   309  INH309     -0.3530
     30  C10       12.0870   17.3040   41.2590 C.3   309  INH309      0.2100
     31  O2        14.9110   14.5670   42.0300 O.2   309  INH309     -0.3530
     32  C13       15.1380   13.1780   42.1380 C.3   309  INH309      0.2100
@<TRIPOS>BOND
     1    30    29    1
     2    29     5    1
     3    31    32    1
     4    31     6    1
     5     5     6    2
     6     5     7    1
     7     6     1    1
     8     7     3    1
     9     1     8    2
    10     3     8    1
    11     3     2    2
    12     8     9    1
    13    14    13    1
    14    14    15    1
    15     2    13    1
    16     2    11    1
    17    13    17    1
    18     9    10    1
    19     9     4    1
    20    15    16    1
    21    15    18    1
    22    16    17    1
    23    11     4    1
    24    11    12    1
    25    18    19    1
    26    26    19   ar
    27    26    24   ar
    28    19    20   ar
    29    24    22   ar
    30    20    21   ar
    31    22    21   ar
    32    22    25   ar
    33    21    23   ar
    34    25    27   ar
    35    23    28   ar
    36    27    28   ar
