@<TRIPOS>MOLECULE
./ligand/3c2o_lig.pdb
 15 15 0 0 0
SMALL
GASTEIGER

@<TRIPOS>ATOM
      1  N1       -26.3650   14.2920   -7.2880 N.ar  1627  INH1627    -0.2475
      2  C1       -25.5360   13.2370   -7.2740 C.ar  1627  INH1627     0.1658
      3  C2       -25.8720   12.1070   -6.5290 C.ar  1627  INH1627     0.0956
      4  C3       -27.0580   12.1120   -5.8010 C.ar  1627  INH1627    -0.0439
      5  C4       -27.8870   13.2280   -5.8390 C.ar  1627  INH1627    -0.0428
      6  C5       -27.5010   14.3200   -6.6110 C.ar  1627  INH1627     0.0285
      7  C6       -24.1970   13.3530   -8.0070 C.2   1627  INH1627     0.4053
      8  O1       -24.1970   13.8860   -9.1370 O.co2 1627  INH1627    -0.2388
      9  O2       -23.1660   12.9600   -7.4200 O.co2 1627  INH1627    -0.2388
     10  C7       -25.0360   10.8270   -6.5700 C.2   1627  INH1627     0.3888
     11  O3       -24.4190   10.5560   -7.6230 O.co2 1627  INH1627    -0.2405
     12  O4       -24.9970   10.1250   -5.5360 O.co2 1627  INH1627    -0.2405
     13  H1       -27.3350   11.2490   -5.2060 H     1627  INH1627     0.0627
     14  H2       -28.8150   13.2470   -5.2790 H     1627  INH1627     0.0633
     15  H3       -28.1350   15.1980   -6.6580 H     1627  INH1627     0.0830
@<TRIPOS>BOND
     1     8     7   ar
     2     7     9   ar
     3     7     2    1
     4    11    10   ar
     5     1     2   ar
     6     1     6   ar
     7     2     3   ar
     8    15     6    1
     9     6     5   ar
    10    10     3    1
    11    10    12   ar
    12     3     4   ar
    13     5     4   ar
    14     5    14    1
    15     4    13    1
