@<TRIPOS>MOLECULE
/tmp/ewbell/vina_3c2o_3c2o_lig/vina/vina4.pdbqt
 15 15 0 0 0
SMALL
GASTEIGER

@<TRIPOS>ATOM
      1  N1       -26.2730    4.9250    1.4490 N.pl3 1627  INH1627    -0.3600
      2  H1       -26.8310    5.7760    1.3730 H     1627  INH1627     0.1650
      3  C1       -25.1610    4.9510    2.1980 C.2   1627  INH1627     0.1230
      4  C2       -24.3760    3.8040    2.3070 C.2   1627  INH1627     0.0710
      5  C3       -24.7810    2.6490    1.6450 C.3   1627  INH1627     0.0220
      6  C4       -25.9440    2.6620    0.8820 C.2   1627  INH1627     0.0180
      7  C5       -26.6770    3.8430    0.8040 C.2   1627  INH1627     0.0880
      8  C6       -24.8450    6.2240    2.9880 C.2   1627  INH1627     0.1940
      9  O1       -25.3590    6.3500    4.1190 O.2   1627  INH1627    -0.6450
     10  O2       -24.0490    7.0480    2.4880 O.3   1627  INH1627    -0.7720
     11  H        -23.1250    6.9200    2.5790 H     1627  INH1627     0.1670
     12  C7       -23.0340    3.8020    3.0410 C.2   1627  INH1627     0.1780
     13  O3       -22.8240    4.6910    3.8950 O.2   1627  INH1627    -0.6460
     14  O4       -22.2210    2.8940    2.7610 O.3   1627  INH1627    -0.7730
     15  H        -22.4190    2.2790    2.0840 H     1627  INH1627     0.1670
@<TRIPOS>BOND
     1     7     6    2
     2     7     1    1
     3     6     5    1
     4     2     1    1
     5     1     3    1
     6     5     4    1
     7    15    14    1
     8     3     4    2
     9     3     8    1
    10     4    12    1
    11    10    11    1
    12    10     8    1
    13    14    12    1
    14     8     9    2
    15    12    13    2
