@<TRIPOS>MOLECULE
/tmp/ewbell/vina_3c2o_3c2o_lig/vina/vina2.pdbqt
 15 15 0 0 0
SMALL
GASTEIGER

@<TRIPOS>ATOM
      1  N1       -25.9080   14.4200   -7.7130 N.pl3 1627  INH1627    -0.3600
      2  H1       -25.5140   15.1050   -8.3580 H     1627  INH1627     0.1650
      3  C1       -25.1590   13.3630   -7.3630 C.2   1627  INH1627     0.1230
      4  C2       -25.6800   12.4080   -6.4910 C.2   1627  INH1627     0.0710
      5  C3       -26.9660   12.5880   -5.9900 C.3   1627  INH1627     0.0220
      6  C4       -27.7080   13.7000   -6.3750 C.2   1627  INH1627     0.0180
      7  C5       -27.1350   14.6120   -7.2570 C.2   1627  INH1627     0.0880
      8  C6       -23.7140   13.2960   -7.8650 C.2   1627  INH1627     0.1940
      9  O1       -23.4940   12.6650   -8.9200 O.2   1627  INH1627    -0.6450
     10  O2       -22.8370   13.9170   -7.2270 O.3   1627  INH1627    -0.7720
     11  H        -21.9340   13.8190   -7.4560 H     1627  INH1627     0.1670
     12  C7       -24.9300   11.1190   -6.1520 C.2   1627  INH1627     0.1780
     13  O3       -24.7210   10.8550   -4.9480 O.2   1627  INH1627    -0.6460
     14  O4       -24.5800   10.3840   -7.1010 O.3   1627  INH1627    -0.7730
     15  H        -24.8510    9.4880   -7.1240 H     1627  INH1627     0.1670
@<TRIPOS>BOND
     1     9     8    2
     2     2     1    1
     3     8     3    1
     4     8    10    1
     5     1     3    1
     6     1     7    1
     7    11    10    1
     8     3     4    2
     9     7     6    2
    10    15    14    1
    11    14    12    1
    12     4    12    1
    13     4     5    1
    14     6     5    1
    15    12    13    2
