@<TRIPOS>MOLECULE
/tmp/ewbell/vina_3c2o_3c2o_lig/vina/vina5.pdbqt
 15 15 0 0 0
SMALL
GASTEIGER

@<TRIPOS>ATOM
      1  N1       -25.3940   11.5270   -7.8270 N.pl3 1627  INH1627    -0.3600
      2  H1       -25.0020   11.3680   -8.7550 H     1627  INH1627     0.1650
      3  C1       -26.4650   12.3270   -7.7090 C.2   1627  INH1627     0.1230
      4  C2       -27.0100   12.5670   -6.4490 C.2   1627  INH1627     0.0710
      5  C3       -26.4350   11.9520   -5.3410 C.3   1627  INH1627     0.0220
      6  C4       -25.3280   11.1260   -5.5060 C.2   1627  INH1627     0.0180
      7  C5       -24.8240   10.9350   -6.7900 C.2   1627  INH1627     0.0880
      8  C6       -27.1090   12.8730   -8.9860 C.2   1627  INH1627     0.1940
      9  O1       -27.8510   12.1080   -9.6370 O.2   1627  INH1627    -0.6450
     10  O2       -26.9050   14.0690   -9.2860 O.3   1627  INH1627    -0.7720
     11  H        -26.5920   14.6680   -8.6360 H     1627  INH1627     0.1670
     12  C7       -28.1480   13.5650   -6.2310 C.2   1627  INH1627     0.1780
     13  O3       -27.9110   14.7810   -6.4000 O.2   1627  INH1627    -0.6460
     14  O4       -29.2680   13.1080   -5.9140 O.3   1627  INH1627    -0.7730
     15  H        -29.3300   12.4020   -5.3020 H     1627  INH1627     0.1670
@<TRIPOS>BOND
     1     9     8    2
     2    10     8    1
     3    10    11    1
     4     8     3    1
     5     2     1    1
     6     1     3    1
     7     1     7    1
     8     3     4    2
     9     7     6    2
    10     4    12    1
    11     4     5    1
    12    13    12    2
    13    12    14    1
    14    14    15    1
    15     6     5    1
