@<TRIPOS>MOLECULE
/tmp/ewbell/vina_3c2o_3c2o_lig/vina/vina3.pdbqt
 15 15 0 0 0
SMALL
GASTEIGER

@<TRIPOS>ATOM
      1  N1       -26.9080   12.5770   -5.9590 N.pl3 1627  INH1627    -0.3600
      2  H1       -27.2690   11.8750   -5.3130 H     1627  INH1627     0.1650
      3  C1       -25.6780   12.4090   -6.4670 C.2   1627  INH1627     0.1230
      4  C2       -25.1590   13.3620   -7.3430 C.2   1627  INH1627     0.0710
      5  C3       -25.9440   14.4590   -7.6830 C.3   1627  INH1627     0.0220
      6  C4       -27.2170   14.5930   -7.1380 C.2   1627  INH1627     0.0180
      7  C5       -27.6730   13.6130   -6.2600 C.2   1627  INH1627     0.0880
      8  C6       -24.9220   11.1200   -6.1360 C.2   1627  INH1627     0.1940
      9  O1       -24.7200   10.8570   -4.9310 O.2   1627  INH1627    -0.6450
     10  O2       -24.5930   10.3680   -7.0780 O.3   1627  INH1627    -0.7720
     11  H        -25.2510    9.9190   -7.5700 H     1627  INH1627     0.1670
     12  C7       -23.7200   13.2970   -7.8580 C.2   1627  INH1627     0.1780
     13  O3       -23.4920   12.6420   -8.8980 O.2   1627  INH1627    -0.6460
     14  O4       -22.8460   13.9210   -7.2180 O.3   1627  INH1627    -0.7730
     15  H        -22.0160   13.5220   -7.0440 H     1627  INH1627     0.1670
@<TRIPOS>BOND
     1    13    12    2
     2    12     4    1
     3    12    14    1
     4     5     4    1
     5     5     6    1
     6    11    10    1
     7     4     3    2
     8    14    15    1
     9     6     7    2
    10    10     8    1
    11     3     8    1
    12     3     1    1
    13     7     1    1
    14     8     9    2
    15     1     2    1
