@<TRIPOS>MOLECULE
/tmp/ewbell/vina_3c2o_3c2o_lig/vina/vina1.pdbqt
 15 15 0 0 0
SMALL
GASTEIGER

@<TRIPOS>ATOM
      1  N1       -24.6480    2.5810    1.6390 N.pl3 1627  INH1627    -0.3600
      2  H1       -24.0390    1.7680    1.7290 H     1627  INH1627     0.1650
      3  C1       -24.3030    3.7140    2.2700 C.2   1627  INH1627     0.1230
      4  C2       -25.1260    4.8360    2.1700 C.2   1627  INH1627     0.0710
      5  C3       -26.2820    4.7530    1.3990 C.3   1627  INH1627     0.0220
      6  C4       -26.6000    3.5610    0.7570 C.2   1627  INH1627     0.0180
      7  C5       -25.7440    2.4740    0.9060 C.2   1627  INH1627     0.0880
      8  C6       -22.9600    3.7600    3.0030 C.2   1627  INH1627     0.1940
      9  O1       -22.7930    4.6580    3.8540 O.2   1627  INH1627    -0.6450
     10  O2       -22.1200    2.8690    2.7540 O.3   1627  INH1627    -0.7720
     11  H        -21.8330    2.2930    3.4350 H     1627  INH1627     0.1670
     12  C7       -24.8580    6.1150    2.9630 C.2   1627  INH1627     0.1780
     13  O3       -25.3880    6.2370    4.0890 O.2   1627  INH1627    -0.6460
     14  O4       -24.1010    6.9690    2.4500 O.3   1627  INH1627    -0.7730
     15  H        -23.2270    7.0720    2.7680 H     1627  INH1627     0.1670
@<TRIPOS>BOND
     1     6     7    2
     2     6     5    1
     3     7     1    1
     4     5     4    1
     5     1     2    1
     6     1     3    1
     7     4     3    2
     8     4    12    1
     9     3     8    1
    10    14    15    1
    11    14    12    1
    12    10     8    1
    13    10    11    1
    14    12    13    2
    15     8     9    2
