@<TRIPOS>MOLECULE
./ligand/3bgz_lig.pdb
 38 41 0 0 0
SMALL
GASTEIGER

@<TRIPOS>ATOM
      1  C1       -21.8720   40.4050   -3.1770 C.ar  273  INH273     -0.0617
      2  C2       -18.6690   35.0290   -5.5120 C.ar  273  INH273     -0.0617
      3  C3       -22.3520   39.8790   -1.9770 C.ar  273  INH273     -0.0612
      4  C4       -20.6330   40.0140   -3.6680 C.ar  273  INH273     -0.0612
      5  C5       -19.8540   35.5270   -4.9790 C.ar  273  INH273     -0.0611
      6  C6       -17.5040   35.0110   -4.7480 C.ar  273  INH273     -0.0611
      7  C7       -19.0540   38.4060    2.7160 C.ar  273  INH273     -0.0603
      8  C8       -19.5470   38.5420    1.4370 C.ar  273  INH273     -0.0519
      9  C9       -21.6090   38.9520   -1.2530 C.ar  273  INH273     -0.0539
     10  C10      -19.8850   39.0960   -2.9540 C.ar  273  INH273     -0.0539
     11  C11      -19.8780   36.0240   -3.6840 C.ar  273  INH273     -0.0526
     12  C12      -17.5090   35.5010   -3.4590 C.ar  273  INH273     -0.0526
     13  C13      -18.1020   37.4260    2.9930 C.ar  273  INH273     -0.0456
     14  C14      -19.1250   37.6950    0.4060 C.ar  273  INH273      0.0088
     15  C15      -20.3690   38.5260   -1.7500 C.ar  273  INH273     -0.0153
     16  C16      -18.6940   36.0300   -2.9150 C.ar  273  INH273     -0.0011
     17  C17      -19.4690   37.5860   -1.0230 C.ar  273  INH273      0.0151
     18  C18      -17.6710   36.5480    1.9860 C.ar  273  INH273      0.0870
     19  C19      -18.1840   36.6870    0.6720 C.ar  273  INH273      0.0618
     20  C20      -18.7050   36.5490   -1.5230 C.ar  273  INH273      0.0553
     21  C21      -16.6360   35.5370    2.2610 C.2   273  INH273      0.3885
     22  N1       -17.9570   36.0140   -0.5040 N.ar  273  INH273     -0.3530
     23  O1       -15.9970   35.5420    3.3100 O.co2 273  INH273     -0.2405
     24  O2       -16.3530   34.6390    1.3060 O.co2 273  INH273     -0.2405
     25  H1       -22.4670   41.1200   -3.7270 H     273  INH273      0.0618
     26  H2       -18.6520   34.6540   -6.5250 H     273  INH273      0.0618
     27  H3       -23.3150   40.1960   -1.6050 H     273  INH273      0.0618
     28  H4       -20.2590   40.4220   -4.5950 H     273  INH273      0.0618
     29  H5       -20.7560   35.5270   -5.5740 H     273  INH273      0.0618
     30  H6       -16.5930   34.6110   -5.1670 H     273  INH273      0.0618
     31  H7       -19.4040   39.0570    3.5030 H     273  INH273      0.0618
     32  H8       -20.2710   39.3150    1.2260 H     273  INH273      0.0624
     33  H9       -21.9840   38.5640   -0.3170 H     273  INH273      0.0624
     34  H10      -18.9110   38.8070   -3.3220 H     273  INH273      0.0624
     35  H11      -20.7980   36.4050   -3.2660 H     273  INH273      0.0624
     36  H12      -16.6050   35.4790   -2.8680 H     273  INH273      0.0624
     37  H13      -17.6930   37.3420    3.9890 H     273  INH273      0.0626
     38  H14      -17.3320   35.2400   -0.6040 H     273  INH273      0.1659
@<TRIPOS>BOND
     1     1    25    1
     2     1     4   ar
     3     1     3   ar
     4     2     5   ar
     5     2    26    1
     6     2     6   ar
     7     3    27    1
     8     3     9   ar
     9     4    10   ar
    10     4    28    1
    11     5    11   ar
    12     5    29    1
    13     6    30    1
    14     6    12   ar
    15     7     8   ar
    16     7    31    1
    17     7    13   ar
    18     8    14   ar
    19     8    32    1
    20     9    33    1
    21     9    15   ar
    22    10    15   ar
    23    10    34    1
    24    11    16   ar
    25    11    35    1
    26    12    16   ar
    27    12    36    1
    28    13    37    1
    29    13    18   ar
    30    14    17   ar
    31    14    19   ar
    32    15    17    1
    33    16    20    1
    34    17    20   ar
    35    18    21    1
    36    18    19   ar
    37    19    22   ar
    38    20    22   ar
    39    21    24   ar
    40    21    23   ar
    41    22    38    1
