@<TRIPOS>MOLECULE
/tmp/ewbell/vina_3bgz_3bgz_lig/vina/vina5.pdbqt
 26 29 0 0 0
SMALL
GASTEIGER

@<TRIPOS>ATOM
      1  C7       -17.0240   34.8260    0.9530 C.ar  273  INH273      0.0020
      2  C8       -17.4050   35.1040   -0.3410 C.ar  273  INH273      0.0140
      3  C13      -17.3960   35.6850    1.9860 C.ar  273  INH273      0.0210
      4  C14      -18.1450   36.2520   -0.6460 C.ar  273  INH273      0.0050
      5  C17      -18.6760   36.8140   -1.9010 C.ar  273  INH273      0.0140
      6  C18      -18.1220   36.8540    1.7130 C.ar  273  INH273      0.0650
      7  C19      -18.5080   37.1400    0.3790 C.ar  273  INH273      0.0610
      8  C20      -19.3360   37.9760   -1.5510 C.ar  273  INH273      0.0550
      9  N1       -19.2170   38.1670   -0.1970 N.ar  273  INH273     -0.3530
     10  H14      -19.5950   38.9460    0.3030 H     273  INH273      0.1660
     11  C15      -18.5960   36.1410   -3.2290 C.ar  273  INH273     -0.0230
     12  C9       -19.7130   35.6370   -3.9100 C.ar  273  INH273      0.0120
     13  C3       -19.5470   35.0790   -5.1730 C.ar  273  INH273      0.0010
     14  C1       -18.2900   35.0330   -5.7790 C.ar  273  INH273      0.0000
     15  C4       -17.1790   35.5550   -5.1290 C.ar  273  INH273      0.0010
     16  C10      -17.3340   36.1160   -3.8740 C.ar  273  INH273      0.0120
     17  C16      -20.0340   38.9220   -2.4590 C.ar  273  INH273     -0.0090
     18  C11      -21.4320   39.0980   -2.3700 C.ar  273  INH273      0.0140
     19  C5       -22.0710   39.9780   -3.2320 C.ar  273  INH273      0.0010
     20  C2       -21.3350   40.6760   -4.1850 C.ar  273  INH273      0.0000
     21  C6       -19.9590   40.4880   -4.2920 C.ar  273  INH273      0.0010
     22  C12      -19.3070   39.6170   -3.4440 C.ar  273  INH273      0.0140
     23  C21      -18.5530   37.7450    2.8030 C.2   273  INH273      0.1780
     24  O2       -17.8010   37.8050    3.9120 O.2   273  INH273     -0.6460
     25  O1       -19.5410   38.4660    2.6900 O.3   273  INH273     -0.7730
     26  H        -19.8910   38.6510    1.8400 H     273  INH273      0.1670
@<TRIPOS>BOND
     1    14    13   ar
     2    14    15   ar
     3    13    12   ar
     4    15    16   ar
     5    21    20   ar
     6    21    22   ar
     7    20    19   ar
     8    12    11   ar
     9    16    11   ar
    10    22    17   ar
    11    19    18   ar
    12    11     5    1
    13    17    18   ar
    14    17     8    1
    15     5     8   ar
    16     5     4   ar
    17     8     9   ar
    18     4     2   ar
    19     4     7   ar
    20     2     1   ar
    21     9    10    1
    22     9     7   ar
    23     7     6   ar
    24     1     3   ar
    25     6     3   ar
    26     6    23    1
    27    26    25    1
    28    25    23    1
    29    23    24    2
