@<TRIPOS>MOLECULE
/tmp/ewbell/vina_3bgz_3bgz_lig/vina/vina3.pdbqt
 26 29 0 0 0
SMALL
GASTEIGER

@<TRIPOS>ATOM
      1  C7       -15.8590   34.2270   -1.7240 C.ar  273  INH273      0.0020
      2  C8       -16.6460   35.0460   -2.5040 C.ar  273  INH273      0.0140
      3  C13      -16.0060   34.2380   -0.3380 C.ar  273  INH273      0.0210
      4  C14      -17.5820   35.9120   -1.9280 C.ar  273  INH273      0.0050
      5  C17      -18.5340   36.8920   -2.4810 C.ar  273  INH273      0.0140
      6  C18      -16.9220   35.1080    0.2730 C.ar  273  INH273      0.0650
      7  C19      -17.7270   35.9530   -0.5310 C.ar  273  INH273      0.0610
      8  C20      -19.1980   37.4350   -1.3980 C.ar  273  INH273      0.0550
      9  N1       -18.7000   36.8800   -0.2450 N.ar  273  INH273     -0.3530
     10  H14      -19.0040   37.1180    0.6770 H     273  INH273      0.1660
     11  C15      -18.7760   37.1070   -3.9360 C.ar  273  INH273     -0.0230
     12  C9       -17.9310   37.8680   -4.7570 C.ar  273  INH273      0.0120
     13  C3       -18.2070   37.9620   -6.1180 C.ar  273  INH273      0.0010
     14  C1       -19.2970   37.2940   -6.6780 C.ar  273  INH273      0.0000
     15  C4       -20.1250   36.5140   -5.8820 C.ar  273  INH273      0.0010
     16  C10      -19.8580   36.4100   -4.5300 C.ar  273  INH273      0.0120
     17  C16      -20.2510   38.4820   -1.4210 C.ar  273  INH273     -0.0090
     18  C11      -20.0880   39.6410   -2.2120 C.ar  273  INH273      0.0140
     19  C5       -21.0770   40.6150   -2.2160 C.ar  273  INH273      0.0010
     20  C2       -22.2170   40.4520   -1.4350 C.ar  273  INH273      0.0000
     21  C6       -22.3710   39.3220   -0.6350 C.ar  273  INH273      0.0010
     22  C12      -21.3990   38.3440   -0.6190 C.ar  273  INH273      0.0140
     23  C21      -17.1120   35.0970    1.7340 C.2   273  INH273      0.1780
     24  O2       -18.3480   34.8990    2.2140 O.2   273  INH273     -0.6460
     25  O1       -16.1620   35.2040    2.5050 O.3   273  INH273     -0.7730
     26  H        -16.3140   35.3010    3.4250 H     273  INH273      0.1670
@<TRIPOS>BOND
     1    14    13   ar
     2    14    15   ar
     3    13    12   ar
     4    15    16   ar
     5    12    11   ar
     6    16    11   ar
     7    11     5    1
     8     2     4   ar
     9     2     1   ar
    10     5     4   ar
    11     5     8   ar
    12    19    18   ar
    13    19    20   ar
    14    18    17   ar
    15     4     7   ar
    16     1     3   ar
    17    20    21   ar
    18    17     8    1
    19    17    22   ar
    20     8     9   ar
    21    21    22   ar
    22     7     9   ar
    23     7     6   ar
    24     3     6   ar
    25     9    10    1
    26     6    23    1
    27    23    24    2
    28    23    25    1
    29    25    26    1
