@<TRIPOS>MOLECULE
/tmp/ewbell/vina_3bgz_3bgz_lig/vina/vina4.pdbqt
 26 29 0 0 0
SMALL
GASTEIGER

@<TRIPOS>ATOM
      1  C7       -21.9460   39.8400    0.0290 C.ar  273  INH273      0.0020
      2  C8       -20.9710   38.9120    0.3170 C.ar  273  INH273      0.0140
      3  C13      -22.1340   40.2660   -1.2850 C.ar  273  INH273      0.0210
      4  C14      -20.1420   38.3990   -0.6870 C.ar  273  INH273      0.0050
      5  C17      -19.0300   37.4310   -0.6910 C.ar  273  INH273      0.0140
      6  C18      -21.3080   39.7860   -2.3140 C.ar  273  INH273      0.0650
      7  C19      -20.3010   38.8340   -2.0130 C.ar  273  INH273      0.0610
      8  C20      -18.6140   37.3300   -2.0040 C.ar  273  INH273      0.0550
      9  N1       -19.3670   38.1780   -2.7780 N.ar  273  INH273     -0.3530
     10  H14      -19.2510   38.3020   -3.7630 H     273  INH273      0.1660
     11  C15      -18.5840   36.6530    0.5000 C.ar  273  INH273     -0.0230
     12  C9       -17.4030   36.9260    1.2060 C.ar  273  INH273      0.0120
     13  C3       -17.1010   36.1820    2.3420 C.ar  273  INH273      0.0010
     14  C1       -17.9630   35.1850    2.7990 C.ar  273  INH273      0.0000
     15  C4       -19.1500   34.9220    2.1260 C.ar  273  INH273      0.0010
     16  C10      -19.4630   35.6580    0.9990 C.ar  273  INH273      0.0120
     17  C16      -17.5090   36.4910   -2.5350 C.ar  273  INH273     -0.0090
     18  C11      -17.1130   35.3180   -1.8560 C.ar  273  INH273      0.0140
     19  C5       -16.0720   34.5510   -2.3590 C.ar  273  INH273      0.0010
     20  C2       -15.4170   34.9430   -3.5230 C.ar  273  INH273      0.0000
     21  C6       -15.7890   36.1120   -4.1830 C.ar  273  INH273      0.0010
     22  C12      -16.8210   36.8870   -3.6980 C.ar  273  INH273      0.0140
     23  C21      -21.5260   40.1990   -3.7100 C.2   273  INH273      0.1780
     24  O2       -20.4570   40.3480   -4.5050 O.2   273  INH273     -0.6460
     25  O1       -22.6570   40.3500   -4.1650 O.3   273  INH273     -0.7730
     26  H        -23.2720   40.8990   -3.7200 H     273  INH273      0.1670
@<TRIPOS>BOND
     1    24    23    2
     2    21    22   ar
     3    21    20   ar
     4    25    26    1
     5    25    23    1
     6    10     9    1
     7    23     6    1
     8    22    17   ar
     9    20    19   ar
    10     9     7   ar
    11     9     8   ar
    12    17     8    1
    13    17    18   ar
    14    19    18   ar
    15     6     7   ar
    16     6     3   ar
    17     7     4   ar
    18     8     5   ar
    19     3     1   ar
    20     5     4   ar
    21     5    11    1
    22     4     2   ar
    23     1     2   ar
    24    11    16   ar
    25    11    12   ar
    26    16    15   ar
    27    12    13   ar
    28    15    14   ar
    29    13    14   ar
