@<TRIPOS>MOLECULE
/tmp/ewbell/vina_3bgz_3bgz_lig/vina/vina1.pdbqt
 26 29 0 0 0
SMALL
GASTEIGER

@<TRIPOS>ATOM
      1  C7       -19.0320   38.4280    2.7070 C.ar  273  INH273      0.0020
      2  C8       -19.4290   38.5850    1.3970 C.ar  273  INH273      0.0140
      3  C13      -18.1740   37.3840    3.0520 C.ar  273  INH273      0.0210
      4  C14      -19.0030   37.6980    0.4010 C.ar  273  INH273      0.0050
      5  C17      -19.2600   37.5980   -1.0460 C.ar  273  INH273      0.0140
      6  C18      -17.7440   36.4660    2.0820 C.ar  273  INH273      0.0650
      7  C19      -18.1580   36.6270    0.7360 C.ar  273  INH273      0.0610
      8  C20      -18.5420   36.5030   -1.4880 C.ar  273  INH273      0.0550
      9  N1       -17.9040   35.9270   -0.4180 N.ar  273  INH273     -0.3530
     10  H14      -17.3320   35.1080   -0.4720 H     273  INH273      0.1660
     11  C15      -20.0390   38.5930   -1.8370 C.ar  273  INH273     -0.0230
     12  C9       -21.3810   38.9060   -1.5810 C.ar  273  INH273      0.0120
     13  C3       -22.0070   39.8930   -2.3360 C.ar  273  INH273      0.0010
     14  C1       -21.3140   40.5880   -3.3270 C.ar  273  INH273      0.0000
     15  C4       -19.9760   40.3090   -3.5730 C.ar  273  INH273      0.0010
     16  C10      -19.3430   39.3330   -2.8260 C.ar  273  INH273      0.0120
     17  C16      -18.4780   35.9690   -2.8730 C.ar  273  INH273     -0.0090
     18  C11      -17.2400   35.8810   -3.5480 C.ar  273  INH273      0.0140
     19  C5       -17.1980   35.3900   -4.8450 C.ar  273  INH273      0.0010
     20  C2       -18.3730   34.9940   -5.4780 C.ar  273  INH273      0.0000
     21  C6       -19.5980   35.1020   -4.8250 C.ar  273  INH273      0.0010
     22  C12      -19.6600   35.5880   -3.5360 C.ar  273  INH273      0.0140
     23  C21      -16.8060   35.3860    2.4310 C.2   273  INH273      0.1780
     24  O2       -15.9100   34.9980    1.5120 O.2   273  INH273     -0.6460
     25  O1       -16.7930   34.8850    3.5520 O.3   273  INH273     -0.7730
     26  H        -17.5990   34.6550    3.9720 H     273  INH273      0.1670
@<TRIPOS>BOND
     1    20    19   ar
     2    20    21   ar
     3    19    18   ar
     4    21    22   ar
     5    15    14   ar
     6    15    16   ar
     7    18    17   ar
     8    22    17   ar
     9    14    13   ar
    10    17     8    1
    11    16    11   ar
    12    13    12   ar
    13    11    12   ar
    14    11     5    1
    15     8     5   ar
    16     8     9   ar
    17     5     4   ar
    18    10     9    1
    19     9     7   ar
    20     4     7   ar
    21     4     2   ar
    22     7     6   ar
    23     2     1   ar
    24    24    23    2
    25     6    23    1
    26     6     3   ar
    27    23    25    1
    28     1     3   ar
    29    25    26    1
