@<TRIPOS>MOLECULE
/tmp/ewbell/vina_3bgz_3bgz_lig/vina/vina2.pdbqt
 26 29 0 0 0
SMALL
GASTEIGER

@<TRIPOS>ATOM
      1  C7       -15.4570   34.6410   -2.5830 C.ar  273  INH273      0.0020
      2  C8       -16.3390   35.1230   -1.6410 C.ar  273  INH273      0.0140
      3  C13      -15.4760   35.1540   -3.8790 C.ar  273  INH273      0.0210
      4  C14      -17.2780   36.1080   -1.9670 C.ar  273  INH273      0.0050
      5  C17      -18.3340   36.7960   -1.2040 C.ar  273  INH273      0.0140
      6  C18      -16.4170   36.1300   -4.2440 C.ar  273  INH273      0.0650
      7  C19      -17.3270   36.6190   -3.2740 C.ar  273  INH273      0.0610
      8  C20      -18.9270   37.6820   -2.0830 C.ar  273  INH273      0.0550
      9  N1       -18.3300   37.5580   -3.3120 N.ar  273  INH273     -0.3530
     10  H14      -18.5890   38.0790   -4.1250 H     273  INH273      0.1660
     11  C15      -18.5720   36.6200    0.2570 C.ar  273  INH273     -0.0230
     12  C9       -18.8760   35.3860    0.8490 C.ar  273  INH273      0.0120
     13  C3       -19.0220   35.3100    2.2310 C.ar  273  INH273      0.0010
     14  C1       -18.8510   36.4370    3.0350 C.ar  273  INH273      0.0000
     15  C4       -18.5220   37.6610    2.4650 C.ar  273  INH273      0.0010
     16  C10      -18.3700   37.7460    1.0940 C.ar  273  INH273      0.0120
     17  C16      -20.0570   38.6050   -1.8040 C.ar  273  INH273     -0.0090
     18  C11      -21.1440   38.1820   -1.0070 C.ar  273  INH273      0.0140
     19  C5       -22.1970   39.0520   -0.7640 C.ar  273  INH273      0.0010
     20  C2       -22.1840   40.3320   -1.3120 C.ar  273  INH273      0.0000
     21  C6       -21.1260   40.7440   -2.1170 C.ar  273  INH273      0.0010
     22  C12      -20.0700   39.8930   -2.3700 C.ar  273  INH273      0.0140
     23  C21      -16.4170   36.7050   -5.6000 C.2   273  INH273      0.1780
     24  O2       -17.5100   36.5460   -6.3600 O.2   273  INH273     -0.6460
     25  O1       -15.4710   37.3690   -6.0150 O.3   273  INH273     -0.7730
     26  H        -15.5880   37.9480   -6.7430 H     273  INH273      0.1670
@<TRIPOS>BOND
     1    26    25    1
     2    24    23    2
     3    25    23    1
     4    23     6    1
     5     6     3   ar
     6     6     7   ar
     7    10     9    1
     8     3     1   ar
     9     9     7   ar
    10     9     8   ar
    11     7     4   ar
    12     1     2   ar
    13    22    21   ar
    14    22    17   ar
    15    21    20   ar
    16     8    17    1
    17     8     5   ar
    18     4     2   ar
    19     4     5   ar
    20    17    18   ar
    21    20    19   ar
    22     5    11    1
    23    18    19   ar
    24    11    12   ar
    25    11    16   ar
    26    12    13   ar
    27    16    15   ar
    28    13    14   ar
    29    15    14   ar
