@<TRIPOS>MOLECULE
./ligand/1ec2_lig.pdb
 108 111 0 0 0
SMALL
GASTEIGER

@<TRIPOS>ATOM
      1  C1         9.8350   24.3970    2.0850 C.ar  203  INH203     -0.0219
      2  C2         9.0400   25.5490    1.8790 C.ar  203  INH203     -0.0558
      3  C3         7.6350   25.5010    2.1390 C.ar  203  INH203     -0.0537
      4  C4         7.0070   24.2790    2.6150 C.ar  203  INH203     -0.0164
      5  C5         7.8510   23.1160    2.8180 C.ar  203  INH203     -0.0537
      6  C6         9.2480   23.1570    2.5610 C.ar  203  INH203     -0.0558
      7  C7        16.2970   22.4930    8.5540 C.ar  203  INH203     -0.0219
      8  C8        15.4530   21.6030    9.3310 C.ar  203  INH203     -0.0558
      9  C9        16.0100   20.4270    9.9300 C.ar  203  INH203     -0.0537
     10  C10       17.4170   20.1230    9.7610 C.ar  203  INH203     -0.0164
     11  C11       18.2510   21.0280    8.9770 C.ar  203  INH203     -0.0537
     12  C12       17.6990   22.2110    8.3720 C.ar  203  INH203     -0.0558
     13  C13       15.6680   23.7080    7.9250 C.3   203  INH203      0.0738
     14  O1        14.6010   23.3140    7.0070 O.3   203  INH203     -0.3601
     15  C14       15.0840   22.8600    5.7300 C.3   203  INH203      0.1628
     16  C15       14.1220   23.2450    4.6160 C.3   203  INH203      0.1185
     17  C16       13.7150   24.6950    4.6870 C.3   203  INH203      0.1185
     18  C17       12.3440   24.9260    4.0130 C.3   203  INH203      0.1628
     19  C18       11.2200   24.8260    5.0650 C.2   203  INH203      0.2452
     20  O2        10.9830   23.7560    5.6420 O.2   203  INH203     -0.2729
     21  N1        10.4910   25.9920    5.3170 N.am  203  INH203     -0.3015
     22  C19        9.3480   26.1620    6.2850 C.3   203  INH203      0.1017
     23  C20        9.8180   26.8320    7.6460 C.3   203  INH203     -0.0197
     24  C21       10.9390   26.0460    8.3940 C.3   203  INH203     -0.0605
     25  C22        8.6680   27.1000    8.6580 C.3   203  INH203     -0.0605
     26  C23        8.6030   27.1150    5.5900 C.2   203  INH203      0.2334
     27  O3         8.6960   28.1420    5.0140 O.2   203  INH203     -0.2738
     28  N2         6.9870   26.6440    5.5530 N.am  203  INH203     -0.3168
     29  C24        5.9540   27.4430    4.8940 C.3   203  INH203      0.0001
     30  O4        12.0750   23.9730    2.9180 O.3   203  INH203     -0.3601
     31  C25       11.3040   24.4670    1.8160 C.3   203  INH203      0.0738
     32  O5        14.8340   25.4480    4.2200 O.3   203  INH203     -0.3861
     33  O6        14.6510   22.9140    3.3160 O.3   203  INH203     -0.3861
     34  C26       15.2240   21.3620    5.6540 C.2   203  INH203      0.2452
     35  O7        14.2940   20.6580    6.0570 O.2   203  INH203     -0.2729
     36  N3        16.4240   20.8990    5.1360 N.am  203  INH203     -0.3015
     37  C27       16.7750   19.4880    4.9810 C.3   203  INH203      0.1017
     38  C28       16.8160   19.0540    3.4640 C.3   203  INH203     -0.0197
     39  C29       17.2550   17.5640    3.2430 C.3   203  INH203     -0.0605
     40  C30       15.4900   19.3210    2.7410 C.3   203  INH203     -0.0605
     41  C31       18.1920   19.3440    5.5570 C.2   203  INH203      0.2334
     42  O8        19.1180   20.0830    5.1640 O.2   203  INH203     -0.2738
     43  N4        18.3310   18.3470    6.5160 N.am  203  INH203     -0.3168
     44  C32       19.6240   18.1270    7.1140 C.3   203  INH203      0.0001
     45  C33        5.5060   24.2090    2.8920 C.ar  203  INH203      0.0002
     46  C34        4.9050   23.4540    3.9650 C.ar  203  INH203     -0.0512
     47  C35        3.4730   23.4390    4.1530 C.ar  203  INH203     -0.0430
     48  C36        2.6850   24.2050    3.2270 C.ar  203  INH203      0.0276
     49  N5         3.2170   24.9420    2.1850 N.ar  203  INH203     -0.2627
     50  C37        4.5770   24.9320    2.0390 C.ar  203  INH203      0.0352
     51  C38       18.0040   18.8830   10.3930 C.ar  203  INH203      0.0002
     52  C39       17.2650   17.6460   10.5600 C.ar  203  INH203     -0.0512
     53  C40       17.8750   16.4930   11.1740 C.ar  203  INH203     -0.0430
     54  C41       19.2290   16.6340   11.6020 C.ar  203  INH203      0.0276
     55  N6        19.9660   17.8000   11.4570 N.ar  203  INH203     -0.2627
     56  C42       19.3620   18.8760   10.8730 C.ar  203  INH203      0.0352
     57  H1         9.4950   26.4670    1.5250 H     203  INH203      0.0621
     58  H2         7.0300   26.3860    1.9790 H     203  INH203      0.0624
     59  H3         7.4050   22.1940    3.1740 H     203  INH203      0.0624
     60  H4         9.8640   22.2790    2.7170 H     203  INH203      0.0621
     61  H5        14.4000   21.8290    9.4580 H     203  INH203      0.0621
     62  H6        15.3790   19.7640   10.5100 H     203  INH203      0.0624
     63  H7        19.3040   20.8050    8.8480 H     203  INH203      0.0624
     64  H8        18.3260   22.8780    7.7900 H     203  INH203      0.0621
     65  H9        16.4360   24.2670    7.3700 H     203  INH203      0.0610
     66  H10       15.2480   24.3480    8.7150 H     203  INH203      0.0610
     67  H11       16.0640   23.3250    5.5480 H     203  INH203      0.0720
     68  H12       13.2100   22.6460    4.7580 H     203  INH203      0.0651
     69  H13       13.5760   24.9600    5.7460 H     203  INH203      0.0651
     70  H14       12.3410   25.9410    3.5900 H     203  INH203      0.0720
     71  H15       10.7570   26.8040    4.7970 H     203  INH203      0.1495
     72  H16        8.8050   25.2240    6.4700 H     203  INH203      0.0597
     73  H17       10.2390   27.8100    7.3690 H     203  INH203      0.0318
     74  H18       11.2030   26.5770    9.3210 H     203  INH203      0.0233
     75  H19       11.8270   25.9700    7.7490 H     203  INH203      0.0233
     76  H20       10.5780   25.0370    8.6400 H     203  INH203      0.0233
     77  H21        7.8610   27.6550    8.1570 H     203  INH203      0.0233
     78  H22        9.0520   27.6930    9.5010 H     203  INH203      0.0233
     79  H23        8.2780   26.1420    9.0320 H     203  INH203      0.0233
     80  H24        6.7240   25.7880    5.9970 H     203  INH203      0.1484
     81  H25        4.9810   26.9410    4.9980 H     203  INH203      0.0426
     82  H26        6.1990   27.5510    3.8270 H     203  INH203      0.0426
     83  H27        5.9050   28.4370    5.3620 H     203  INH203      0.0426
     84  H28       11.5820   25.5150    1.6300 H     203  INH203      0.0610
     85  H29       11.5310   23.8640    0.9250 H     203  INH203      0.0610
     86  H30       14.9900   25.2490    3.3040 H     203  INH203      0.2100
     87  H31       14.0270   23.1670    2.6460 H     203  INH203      0.2100
     88  H32       17.0980   21.5790    4.8480 H     203  INH203      0.1495
     89  H33       16.0610   18.8560    5.5290 H     203  INH203      0.0597
     90  H34       17.5780   19.6850    2.9830 H     203  INH203      0.0318
     91  H35       17.2590   17.3390    2.1660 H     203  INH203      0.0233
     92  H36       16.5490   16.8940    3.7550 H     203  INH203      0.0233
     93  H37       18.2650   17.4150    3.6520 H     203  INH203      0.0233
     94  H38       15.1890   20.3670    2.9010 H     203  INH203      0.0233
     95  H39       14.7140   18.6520    3.1400 H     203  INH203      0.0233
     96  H40       15.6160   19.1360    1.6640 H     203  INH203      0.0233
     97  H41       17.5450   17.7910    6.7870 H     203  INH203      0.1484
     98  H42       19.5550   17.3080    7.8450 H     203  INH203      0.0426
     99  H43       19.9540   19.0450    7.6220 H     203  INH203      0.0426
    100  H44       20.3490   17.8590    6.3310 H     203  INH203      0.0426
    101  H45        5.5380   22.8890    4.6400 H     203  INH203      0.0625
    102  H46        3.0130   22.8750    4.9570 H     203  INH203      0.0633
    103  H47        1.6080   24.2050    3.3530 H     203  INH203      0.0829
    104  H48        4.9950   25.5090    1.2220 H     203  INH203      0.0836
    105  H49       16.2380   17.5880   10.2180 H     203  INH203      0.0625
    106  H50       17.3320   15.5640   11.3040 H     203  INH203      0.0633
    107  H51       19.7090   15.7810   12.0670 H     203  INH203      0.0829
    108  H52       19.9430   19.7850   10.7630 H     203  INH203      0.0836
@<TRIPOS>BOND
     1     1    31    1
     2     1     6   ar
     3     1     2   ar
     4     2    57    1
     5     2     3   ar
     6     3    58    1
     7     3     4   ar
     8     4    45    1
     9     4     5   ar
    10     5    59    1
    11     5     6   ar
    12     6    60    1
    13     7    13    1
    14     7    12   ar
    15     7     8   ar
    16     8    61    1
    17     8     9   ar
    18     9    62    1
    19     9    10   ar
    20    10    51    1
    21    10    11   ar
    22    11    63    1
    23    11    12   ar
    24    12    64    1
    25    13    66    1
    26    13    65    1
    27    13    14    1
    28    14    15    1
    29    15    67    1
    30    15    34    1
    31    15    16    1
    32    16    68    1
    33    16    33    1
    34    16    17    1
    35    17    69    1
    36    17    32    1
    37    17    18    1
    38    18    70    1
    39    18    30    1
    40    18    19    1
    41    19    21   am
    42    19    20    2
    43    21    71    1
    44    21    22    1
    45    22    72    1
    46    22    26    1
    47    22    23    1
    48    23    73    1
    49    23    25    1
    50    23    24    1
    51    24    76    1
    52    24    75    1
    53    24    74    1
    54    25    79    1
    55    25    78    1
    56    25    77    1
    57    26    28   am
    58    26    27    2
    59    28    80    1
    60    28    29    1
    61    29    83    1
    62    29    82    1
    63    29    81    1
    64    30    31    1
    65    31    85    1
    66    31    84    1
    67    32    86    1
    68    33    87    1
    69    34    36   am
    70    34    35    2
    71    36    88    1
    72    36    37    1
    73    37    89    1
    74    37    41    1
    75    37    38    1
    76    38    90    1
    77    38    40    1
    78    38    39    1
    79    39    93    1
    80    39    92    1
    81    39    91    1
    82    40    96    1
    83    40    95    1
    84    40    94    1
    85    41    43   am
    86    41    42    2
    87    43    97    1
    88    43    44    1
    89    44   100    1
    90    44    99    1
    91    44    98    1
    92    45    50   ar
    93    45    46   ar
    94    46   101    1
    95    46    47   ar
    96    47   102    1
    97    47    48   ar
    98    48   103    1
    99    48    49   ar
   100    49    50   ar
   101    50   104    1
   102    51    56   ar
   103    51    52   ar
   104    52   105    1
   105    52    53   ar
   106    53   106    1
   107    53    54   ar
   108    54   107    1
   109    54    55   ar
   110    55    56   ar
   111    56   108    1
