@<TRIPOS>MOLECULE
/tmp/ewbell/vina_1ec2_1ec2_lig/vina/vina2.pdbqt
 64 67 0 0 0
SMALL
GASTEIGER

@<TRIPOS>ATOM
      1  C15       13.7490   24.2890    4.7870 C.3   203  INH203      0.1880
      2  C14       12.3900   24.6380    4.1990 C.3   203  INH203      0.2440
      3  O1        12.0760   23.7850    3.0840 O.3   203  INH203     -0.3690
      4  C13       11.3280   24.4620    2.0270 C.3   203  INH203      0.2070
      5  C7         9.8460   24.3480    2.2750 C.ar  203  INH203     -0.0350
      6  C12        9.2400   23.0670    2.5390 C.ar  203  INH203      0.0100
      7  C11        7.8180   23.0050    2.7510 C.ar  203  INH203      0.0130
      8  C10        6.9960   24.2090    2.7030 C.ar  203  INH203     -0.0250
      9  C9         7.6280   25.4860    2.4360 C.ar  203  INH203      0.0130
     10  C8         9.0420   25.5560    2.2240 C.ar  203  INH203      0.0100
     11  C38        5.5040   24.1360    2.9270 C.2   203  INH203     -0.0110
     12  C42        4.6150   25.0560    2.2650 C.2   203  INH203      0.0990
     13  N6         3.2580   25.0550    2.4110 N.pl3 203  INH203     -0.3740
     14  C41        2.6900   24.1070    3.2490 C.2   203  INH203      0.0870
     15  H6         2.6770   25.7320    1.9160 H     203  INH203      0.1640
     16  C40        3.4440   23.1330    3.9700 C.2   203  INH203      0.0180
     17  C39        4.8740   23.1590    3.7960 C.3   203  INH203      0.0150
     18  C26       11.4050   24.5080    5.3320 C.2   203  INH203      0.2500
     19  N3        11.0870   25.6880    5.9870 N.am  203  INH203     -0.3450
     20  H32       11.5330   26.5260    5.6740 H     203  INH203      0.1630
     21  O7        10.9460   23.3930    5.5940 O.2   203  INH203     -0.2710
     22  C27       10.1480   25.7950    7.1010 C.3   203  INH203      0.1800
     23  C31        9.2010   26.9500    6.7400 C.2   203  INH203      0.2400
     24  N4         8.1760   26.6090    5.8660 N.am  203  INH203     -0.3640
     25  H41        8.0950   25.6750    5.5180 H     203  INH203      0.1610
     26  C32        7.2300   27.6210    5.4670 C.3   203  INH203      0.1490
     27  O8         9.3730   28.0890    7.2200 O.2   203  INH203     -0.2710
     28  C28       10.8750   26.1610    8.4530 C.3   203  INH203      0.0090
     29  C30       12.2730   25.5360    8.5560 C.3   203  INH203      0.0120
     30  C29       10.0410   25.8190    9.7360 C.3   203  INH203      0.0120
     31  O6        14.7830   25.1660    4.2970 O.3   203  INH203     -0.3900
     32  H31       14.7940   25.1440    3.3470 H     203  INH203      0.2100
     33  C16       14.1120   22.8420    4.5700 C.3   203  INH203      0.1880
     34  O5        14.5970   22.7480    3.2300 O.3   203  INH203     -0.3900
     35  H30       15.4800   22.3970    3.2370 H     203  INH203      0.2100
     36  C17       15.0060   22.3100    5.7120 C.3   203  INH203      0.2440
     37  O4        14.3490   22.3760    7.0330 O.3   203  INH203     -0.3690
     38  C25       15.0920   23.0030    8.0850 C.3   203  INH203      0.2070
     39  C1        16.1060   22.0810    8.6800 C.ar  203  INH203     -0.0350
     40  C6        17.5190   22.3140    8.4430 C.ar  203  INH203      0.0100
     41  C5        18.4660   21.4290    9.0250 C.ar  203  INH203      0.0130
     42  C4        18.0520   20.3060    9.8460 C.ar  203  INH203     -0.0250
     43  C3        16.6280   20.1090   10.0590 C.ar  203  INH203      0.0130
     44  C2        15.6690   20.9950    9.4770 C.ar  203  INH203      0.0100
     45  C33       19.0880   19.3630   10.4560 C.2   203  INH203     -0.0110
     46  C37       19.4150   18.1150    9.7880 C.2   203  INH203      0.0990
     47  N5        20.3250   17.1950   10.2340 N.pl3 203  INH203     -0.3740
     48  C36       20.9850   17.4790   11.4160 C.2   203  INH203      0.0870
     49  H5        20.5090   16.3360    9.7170 H     203  INH203      0.1640
     50  C35       20.7700   18.6710   12.1900 C.2   203  INH203      0.0180
     51  C34       19.8020   19.6150   11.6840 C.3   203  INH203      0.0150
     52  C18       15.4180   20.8530    5.4190 C.2   203  INH203      0.2500
     53  N1        16.7820   20.6150    5.2190 N.am  203  INH203     -0.3450
     54  H15       17.3850   21.4110    5.2740 H     203  INH203      0.1630
     55  O2        14.5730   19.9490    5.3750 O.2   203  INH203     -0.2710
     56  C19       17.4440   19.2930    4.9290 C.3   203  INH203      0.1800
     57  C23       18.7330   19.5820    5.3790 C.2   203  INH203      0.2400
     58  N2        19.3570   18.2430    6.1870 N.am  203  INH203     -0.3640
     59  H24       20.2740   18.3010    6.5800 H     203  INH203      0.1610
     60  C24       18.6040   16.9980    6.3370 C.3   203  INH203      0.1490
     61  O3        19.5530   20.4320    5.3980 O.2   203  INH203     -0.2710
     62  C20       17.5430   19.0080    3.3690 C.3   203  INH203      0.0090
     63  C22       18.3610   17.7380    3.0010 C.3   203  INH203      0.0120
     64  C21       16.1640   18.9130    2.6470 C.3   203  INH203      0.0120
@<TRIPOS>BOND
     1    15    13    1
     2     4     5    1
     3     4     3    1
     4    10     5   ar
     5    10     9   ar
     6    12    13    1
     7    12    11    2
     8     5     6   ar
     9    13    14    1
    10     9     8   ar
    11     6     7   ar
    12    64    62    1
    13     8     7   ar
    14     8    11    1
    15    11    17    1
    16    63    62    1
    17     3     2    1
    18    34    35    1
    19    34    33    1
    20    14    16    2
    21    32    31    1
    22    62    56    1
    23    17    16    1
    24     2     1    1
    25     2    18    1
    26    31     1    1
    27    33     1    1
    28    33    36    1
    29    56    53    1
    30    56    57    1
    31    53    54    1
    32    53    52   am
    33    18    21    2
    34    18    19   am
    35    55    52    2
    36    57    61    2
    37    57    58   am
    38    52    36    1
    39    26    24    1
    40    25    24    1
    41    20    19    1
    42    36    37    1
    43    24    23   am
    44    19    22    1
    45    58    60    1
    46    58    59    1
    47    23    22    1
    48    23    27    2
    49    37    38    1
    50    22    28    1
    51    38    39    1
    52    40    39   ar
    53    40    41   ar
    54    28    29    1
    55    28    30    1
    56    39    44   ar
    57    41    42   ar
    58    44    43   ar
    59    49    47    1
    60    46    47    1
    61    46    45    2
    62    42    43   ar
    63    42    45    1
    64    47    48    1
    65    45    51    1
    66    48    50    2
    67    51    50    1
