@<TRIPOS>MOLECULE
/tmp/ewbell/vina_1ec2_1ec2_lig/vina/vina5.pdbqt
 64 67 0 0 0
SMALL
GASTEIGER

@<TRIPOS>ATOM
      1  C15       18.7410   17.2830    7.1300 C.3   203  INH203      0.1880
      2  C14       19.0080   18.4200    8.1050 C.3   203  INH203      0.2440
      3  O1        17.8640   19.2860    8.2130 O.3   203  INH203     -0.3690
      4  C13       18.1880   20.7000    8.0380 C.3   203  INH203      0.2070
      5  C7        16.9310   21.5320    8.0330 C.ar  203  INH203     -0.0350
      6  C12       16.9840   22.9490    8.2940 C.ar  203  INH203      0.0100
      7  C11       15.7560   23.6980    8.2970 C.ar  203  INH203      0.0130
      8  C10       14.4750   23.0470    8.0420 C.ar  203  INH203     -0.0250
      9  C9        14.4470   21.6210    7.7830 C.ar  203  INH203      0.0130
     10  C8        15.6650   20.8690    7.7780 C.ar  203  INH203      0.0100
     11  C38       13.1900   23.8400    8.0480 C.2   203  INH203     -0.0110
     12  C42       12.0270   23.3600    7.3470 C.2   203  INH203      0.0990
     13  N6        10.8300   24.0140    7.3050 N.pl3 203  INH203     -0.3740
     14  C41       10.7180   25.2200    7.9800 C.2   203  INH203      0.0870
     15  H6        10.0380   23.6250    6.7920 H     203  INH203      0.1640
     16  C40       11.7840   25.8190    8.7160 C.2   203  INH203      0.0180
     17  C39       13.0360   25.1050    8.7410 C.3   203  INH203      0.0150
     18  C26       19.3740   17.7650    9.4110 C.2   203  INH203      0.2500
     19  N3        18.3470   17.6630   10.3370 N.am  203  INH203     -0.3450
     20  H32       17.4540   18.0340   10.0820 H     203  INH203      0.1630
     21  O7        20.5280   17.3590    9.5690 O.2   203  INH203     -0.2710
     22  C27       18.4750   17.0520   11.6590 C.3   203  INH203      0.1800
     23  C31       17.0730   16.5380   12.0190 C.2   203  INH203      0.2400
     24  N4        16.9710   15.9660   13.2820 N.am  203  INH203     -0.3640
     25  H41       17.7710   15.9080   13.8790 H     203  INH203      0.1610
     26  C32       15.6950   15.4550   13.7190 C.3   203  INH203      0.1490
     27  O8        16.1270   16.6490   11.2140 O.2   203  INH203     -0.2710
     28  C28       18.9090   18.1030   12.7540 C.3   203  INH203      0.0090
     29  C30       18.8680   19.5450   12.2330 C.3   203  INH203      0.0120
     30  C29       20.3080   17.8070   13.3980 C.3   203  INH203      0.0120
     31  O6        18.4620   16.0460    7.8160 O.3   203  INH203     -0.3900
     32  H31       19.1040   15.3930    7.5660 H     203  INH203      0.2100
     33  C16       19.8560   17.1130    6.1290 C.3   203  INH203      0.1880
     34  O5        20.9720   16.6020    6.8570 O.3   203  INH203     -0.3900
     35  H30       21.7730   16.9860    6.5190 H     203  INH203      0.2100
     36  C17       19.3770   16.3370    4.8820 C.3   203  INH203      0.2440
     37  O4        19.0610   17.2220    3.7420 O.3   203  INH203     -0.3690
     38  C25       17.7410   17.1100    3.1940 C.3   203  INH203      0.2070
     39  C1        16.9540   18.3680    3.3730 C.ar  203  INH203     -0.0350
     40  C6        15.8010   18.6220    2.5280 C.ar  203  INH203      0.0100
     41  C5        15.0610   19.8200    2.7210 C.ar  203  INH203      0.0130
     42  C4        15.4330   20.7860    3.7380 C.ar  203  INH203     -0.0250
     43  C3        16.5930   20.4920    4.5630 C.ar  203  INH203      0.0130
     44  C2        17.3410   19.2890    4.3750 C.ar  203  INH203      0.0100
     45  C33       14.6270   22.0710    3.9230 C.2   203  INH203     -0.0110
     46  C37       15.2890   23.2840    4.3750 C.2   203  INH203      0.0990
     47  N5        14.6760   24.4910    4.5730 N.pl3 203  INH203     -0.3740
     48  C36       13.3170   24.5600    4.3220 C.2   203  INH203      0.0870
     49  H5        15.1980   25.3060    4.8930 H     203  INH203      0.1640
     50  C35       12.5260   23.4490    3.8700 C.2   203  INH203      0.0180
     51  C34       13.2110   22.1930    3.6740 C.3   203  INH203      0.0150
     52  C18       20.4530   15.3180    4.4550 C.2   203  INH203      0.2500
     53  N1        21.7540   15.8060    4.3050 N.am  203  INH203     -0.3450
     54  H15       21.8860   16.7820    4.4790 H     203  INH203      0.1630
     55  O2        20.1630   14.1280    4.2670 O.2   203  INH203     -0.2710
     56  C19       22.9810   15.0260    3.9080 C.3   203  INH203      0.1800
     57  C23       23.4970   14.7560    5.1770 C.2   203  INH203      0.2400
     58  N2        24.1150   13.1890    5.2080 N.am  203  INH203     -0.3640
     59  H24       24.5110   12.8440    6.0580 H     203  INH203      0.1610
     60  C24       24.0900   12.3150    4.0360 C.3   203  INH203      0.1490
     61  O3        23.6600   15.2320    6.2450 O.2   203  INH203     -0.2710
     62  C20       24.0430   15.9330    3.1520 C.3   203  INH203      0.0090
     63  C22       25.1580   16.5120    4.0680 C.3   203  INH203      0.0120
     64  C21       24.7340   15.2350    1.9400 C.3   203  INH203      0.0120
@<TRIPOS>BOND
     1    64    62    1
     2    40    41   ar
     3    40    39   ar
     4    41    42   ar
     5    62    56    1
     6    62    63    1
     7    38    39    1
     8    38    37    1
     9    39    44   ar
    10    51    50    1
    11    51    45    1
    12    42    45    1
    13    42    43   ar
    14    37    36    1
    15    50    48    2
    16    56    53    1
    17    56    57    1
    18    45    46    2
    19    60    58    1
    20    55    52    2
    21    53    52   am
    22    53    54    1
    23    48    47    1
    24    46    47    1
    25    44    43   ar
    26    52    36    1
    27    47    49    1
    28    36    33    1
    29    57    58   am
    30    57    61    2
    31    58    59    1
    32    33    34    1
    33    33     1    1
    34    35    34    1
    35    15    13    1
    36     1    31    1
    37     1     2    1
    38    13    12    1
    39    13    14    1
    40    12    11    2
    41    32    31    1
    42    10     9   ar
    43    10     5   ar
    44     9     8   ar
    45    14    16    2
    46     5     4    1
    47     5     6   ar
    48     4     3    1
    49     8    11    1
    50     8     7   ar
    51    11    17    1
    52     2     3    1
    53     2    18    1
    54     6     7   ar
    55    16    17    1
    56    18    21    2
    57    18    19   am
    58    20    19    1
    59    19    22    1
    60    27    23    2
    61    22    23    1
    62    22    28    1
    63    23    24   am
    64    29    28    1
    65    28    30    1
    66    24    26    1
    67    24    25    1
