@<TRIPOS>MOLECULE
/tmp/ewbell/vina_1ec2_1ec2_lig/vina/vina3.pdbqt
 64 67 0 0 0
SMALL
GASTEIGER

@<TRIPOS>ATOM
      1  C15       19.3590   17.9040    7.0950 C.3   203  INH203      0.1880
      2  C14       18.5350   19.1500    7.3820 C.3   203  INH203      0.2440
      3  O1        19.2630   20.0690    8.2170 O.3   203  INH203     -0.3690
      4  C13       18.5530   20.4260    9.4440 C.3   203  INH203      0.2070
      5  C7        17.3280   21.2430    9.1240 C.ar  203  INH203     -0.0350
      6  C12       17.4360   22.4720    8.3780 C.ar  203  INH203      0.0100
      7  C11       16.2410   23.2270    8.1130 C.ar  203  INH203      0.0130
      8  C10       14.9390   22.7690    8.5850 C.ar  203  INH203     -0.0250
      9  C9        14.8550   21.5300    9.3340 C.ar  203  INH203      0.0130
     10  C8        16.0400   20.7730    9.6020 C.ar  203  INH203      0.0100
     11  C38       13.6890   23.5680    8.3030 C.2   203  INH203     -0.0110
     12  C42       12.6020   22.9930    7.5520 C.2   203  INH203      0.0990
     13  N6        11.4400   23.6450    7.2570 N.pl3 203  INH203     -0.3740
     14  C41       11.2880   24.9480    7.7080 C.2   203  INH203      0.0870
     15  H6        10.7040   23.1870    6.7200 H     203  INH203      0.1640
     16  C40       12.2770   25.6470    8.4630 C.2   203  INH203      0.0180
     17  C39       13.4940   24.9320    8.7580 C.3   203  INH203      0.0150
     18  C26       18.1840   19.7320    6.0370 C.2   203  INH203      0.2500
     19  N3        16.8550   19.6150    5.6630 N.am  203  INH203     -0.3450
     20  H32       16.2340   19.1520    6.2960 H     203  INH203      0.1630
     21  O7        19.0740   20.2720    5.3750 O.2   203  INH203     -0.2710
     22  C27       16.2940   20.1190    4.4110 C.3   203  INH203      0.1800
     23  C31       15.2900   21.2110    4.8120 C.2   203  INH203      0.2400
     24  N4        15.5630   22.4700    4.2910 N.am  203  INH203     -0.3640
     25  H41       16.3620   22.6160    3.7070 H     203  INH203      0.1610
     26  C32       14.6780   23.5640    4.6050 C.3   203  INH203      0.1490
     27  O8        14.3180   20.9440    5.5470 O.2   203  INH203     -0.2710
     28  C28       15.5110   18.9980    3.6220 C.3   203  INH203      0.0090
     29  C30       16.2120   17.6350    3.6890 C.3   203  INH203      0.0120
     30  C29       15.2060   19.3700    2.1290 C.3   203  INH203      0.0120
     31  O6        19.4660   17.6500    5.6800 O.3   203  INH203     -0.3900
     32  H31       19.6340   18.4660    5.2230 H     203  INH203      0.2100
     33  C16       18.8420   16.6940    7.8300 C.3   203  INH203      0.1880
     34  O5        18.4790   15.7430    6.8300 O.3   203  INH203     -0.3900
     35  H30       18.9030   15.9690    6.0100 H     203  INH203      0.2100
     36  C17       19.8200   16.2520    8.9410 C.3   203  INH203      0.2440
     37  O4        19.1400   15.5940   10.0760 O.3   203  INH203     -0.3690
     38  C25       18.9500   16.3880   11.2530 C.3   203  INH203      0.2070
     39  C1        17.5760   16.2280   11.8190 C.ar  203  INH203     -0.0350
     40  C6        16.4200   16.5800   11.0140 C.ar  203  INH203      0.0100
     41  C5        15.1230   16.4120   11.5690 C.ar  203  INH203      0.0130
     42  C4        14.9320   15.9000   12.9130 C.ar  203  INH203     -0.0250
     43  C3        16.1160   15.5590   13.6850 C.ar  203  INH203      0.0130
     44  C2        17.4240   15.7240   13.1330 C.ar  203  INH203      0.0100
     45  C33       13.5270   15.7350   13.4920 C.2   203  INH203     -0.0110
     46  C37       12.5530   16.8030   13.3460 C.2   203  INH203      0.0990
     47  N5        11.2690   16.7690   13.8170 N.pl3 203  INH203     -0.3740
     48  C36       10.8680   15.6250   14.4840 C.2   203  INH203      0.0870
     49  H5        10.6330   17.5550   13.6820 H     203  INH203      0.1640
     50  C35       11.7160   14.4860   14.7060 C.2   203  INH203      0.0180
     51  C34       13.0640   14.5630   14.1940 C.3   203  INH203      0.0150
     52  C18       20.8790   15.2950    8.3560 C.2   203  INH203      0.2500
     53  N1        21.2760   15.5320    7.0360 N.am  203  INH203     -0.3450
     54  H15       20.8370   16.3000    6.5710 H     203  INH203      0.1630
     55  O2        21.3500   14.3740    9.0370 O.2   203  INH203     -0.2710
     56  C19       22.2930   14.7570    6.2370 C.3   203  INH203      0.1800
     57  C23       22.2140   15.4570    5.0320 C.2   203  INH203      0.2400
     58  N2        23.7630   15.8880    4.5330 N.am  203  INH203     -0.3640
     59  H24       23.8700   16.4080    3.6860 H     203  INH203      0.1610
     60  C24       24.9590   15.5310    5.2950 C.3   203  INH203      0.1490
     61  O3        21.4480   15.8590    4.2280 O.2   203  INH203     -0.2710
     62  C20       21.8140   13.2700    5.9500 C.3   203  INH203      0.0090
     63  C22       20.3690   13.1610    5.3860 C.3   203  INH203      0.0120
     64  C21       22.7570   12.4650    5.0040 C.3   203  INH203      0.0120
@<TRIPOS>BOND
     1    30    28    1
     2    28    29    1
     3    28    22    1
     4    59    58    1
     5    25    24    1
     6    61    57    2
     7    24    26    1
     8    24    23   am
     9    22    23    1
    10    22    19    1
    11    58    57   am
    12    58    60    1
    13    23    27    2
    14    64    62    1
    15    57    56    1
    16    32    31    1
    17    21    18    2
    18    63    62    1
    19    19    18   am
    20    19    20    1
    21    31     1    1
    22    62    56    1
    23    35    34    1
    24    18     2    1
    25    56    53    1
    26    54    53    1
    27    15    13    1
    28    34    33    1
    29    53    52   am
    30     1     2    1
    31     1    33    1
    32    13    12    1
    33    13    14    1
    34     2     3    1
    35    12    11    2
    36    14    16    2
    37    33    36    1
    38     7     6   ar
    39     7     8   ar
    40     3     4    1
    41    11     8    1
    42    11    17    1
    43    52    36    1
    44    52    55    2
    45     6     5   ar
    46    16    17    1
    47     8     9   ar
    48    36    37    1
    49     5     4    1
    50     5    10   ar
    51     9    10   ar
    52    37    38    1
    53    40    41   ar
    54    40    39   ar
    55    38    39    1
    56    41    42   ar
    57    39    44   ar
    58    42    45    1
    59    42    43   ar
    60    44    43   ar
    61    46    45    2
    62    46    47    1
    63    45    51    1
    64    49    47    1
    65    47    48    1
    66    51    50    1
    67    48    50    2
