@<TRIPOS>MOLECULE
/tmp/ewbell/vina_1ec2_1ec2_lig/vina/vina4.pdbqt
 64 67 0 0 0
SMALL
GASTEIGER

@<TRIPOS>ATOM
      1  C15       19.8160   17.2040    6.2570 C.3   203  INH203      0.1880
      2  C14       19.4250   16.4180    5.0150 C.3   203  INH203      0.2440
      3  O1        19.2430   17.2940    3.8870 O.3   203  INH203     -0.3690
      4  C13       17.9590   17.1130    3.2130 C.3   203  INH203      0.2070
      5  C7        17.0930   18.3320    3.3930 C.ar  203  INH203     -0.0350
      6  C12       15.9920   18.5930    2.4990 C.ar  203  INH203      0.0100
      7  C11       15.2050   19.7800    2.6990 C.ar  203  INH203      0.0130
      8  C10       15.5050   20.7100    3.7830 C.ar  203  INH203     -0.0250
      9  C9        16.6160   20.4260    4.6690 C.ar  203  INH203      0.0130
     10  C8        17.4050   19.2470    4.4770 C.ar  203  INH203      0.0100
     11  C38       14.6740   21.9540    3.9870 C.2   203  INH203     -0.0110
     12  C42       15.2860   23.1850    4.4190 C.2   203  INH203      0.0990
     13  N6        14.6070   24.3510    4.6220 N.pl3 203  INH203     -0.3740
     14  C41       13.2380   24.3610    4.4000 C.2   203  INH203      0.0870
     15  H6        15.0940   25.1930    4.9290 H     203  INH203      0.1640
     16  C40       12.4960   23.2190    3.9720 C.2   203  INH203      0.0180
     17  C39       13.2400   22.0020    3.7650 C.3   203  INH203      0.0150
     18  C26       20.5240   15.4090    4.8030 C.2   203  INH203      0.2500
     19  N3        21.7300   15.9240    4.3540 N.am  203  INH203     -0.3450
     20  H32       21.7830   16.9100    4.1950 H     203  INH203      0.1630
     21  O7        20.2940   14.2220    5.0460 O.2   203  INH203     -0.2710
     22  C27       22.9300   15.1300    4.0960 C.3   203  INH203      0.1800
     23  C31       23.6750   15.0520    5.4380 C.2   203  INH203      0.2400
     24  N4        24.4400   13.9040    5.6110 N.am  203  INH203     -0.3640
     25  H41       24.4750   13.2050    4.8970 H     203  INH203      0.1610
     26  C32       25.1820   13.7360    6.8360 C.3   203  INH203      0.1490
     27  O8        23.5770   15.9710    6.2760 O.2   203  INH203     -0.2710
     28  C28       23.8820   15.8250    3.0460 C.3   203  INH203      0.0090
     29  C30       24.5590   14.8160    2.1100 C.3   203  INH203      0.0120
     30  C29       24.9610   16.7630    3.6910 C.3   203  INH203      0.0120
     31  O6        20.9240   16.5930    6.9490 O.3   203  INH203     -0.3900
     32  H31       21.7050   16.6550    6.4120 H     203  INH203      0.2100
     33  C16       18.6480   17.4260    7.1850 C.3   203  INH203      0.1880
     34  O5        18.3890   16.1690    7.8100 O.3   203  INH203     -0.3900
     35  H30       17.6730   15.7340    7.3610 H     203  INH203      0.2100
     36  C17       18.8760   18.6590    8.0870 C.3   203  INH203      0.2440
     37  O4        17.6910   19.5380    8.1660 O.3   203  INH203     -0.3690
     38  C25       17.9340   20.9470    8.0710 C.3   203  INH203      0.2070
     39  C1        16.6650   21.7370    8.1050 C.ar  203  INH203     -0.0350
     40  C6        15.3870   21.0480    8.0870 C.ar  203  INH203      0.0100
     41  C5        14.1940   21.8180    8.1280 C.ar  203  INH203      0.0130
     42  C4        14.2270   23.2680    8.1890 C.ar  203  INH203     -0.0250
     43  C3        15.5280   23.9180    8.2070 C.ar  203  INH203      0.0130
     44  C2        16.7320   23.1490    8.1660 C.ar  203  INH203      0.0100
     45  C33       12.9310   24.0760    8.2270 C.2   203  INH203     -0.0110
     46  C37       11.7980   23.6680    7.4120 C.2   203  INH203      0.0990
     47  N5        10.5900   24.3070    7.3650 N.pl3 203  INH203     -0.3740
     48  C36       10.4350   25.4310    8.1560 C.2   203  INH203      0.0870
     49  H5         9.8330   23.9690    6.7700 H     203  INH203      0.1640
     50  C35       11.4620   25.9570    9.0140 C.2   203  INH203      0.0180
     51  C34       12.7230   25.2530    9.0350 C.3   203  INH203      0.0150
     52  C18       19.2690   18.2040    9.5070 C.2   203  INH203      0.2500
     53  N1        18.3030   17.4950   10.2280 N.am  203  INH203     -0.3450
     54  H15       17.4280   17.3440    9.7700 H     203  INH203      0.1630
     55  O2        20.3920   18.4530    9.9670 O.2   203  INH203     -0.2710
     56  C19       18.4340   16.9330   11.6210 C.3   203  INH203      0.1800
     57  C23       19.0030   15.6960   11.3130 C.2   203  INH203      0.2400
     58  N2        20.4020   15.4800   12.2250 N.am  203  INH203     -0.3640
     59  H24       20.9300   14.6400   12.1060 H     203  INH203      0.1610
     60  C24       20.8720   16.4790   13.1840 C.3   203  INH203      0.1490
     61  O3        18.8560   14.7370   10.6400 O.2   203  INH203     -0.2710
     62  C20       17.0190   16.6490   12.2820 C.3   203  INH203      0.0090
     63  C22       15.8960   16.2990   11.2650 C.3   203  INH203      0.0120
     64  C21       17.0340   15.5390   13.3770 C.3   203  INH203      0.0120
@<TRIPOS>BOND
     1    29    28    1
     2     6     7   ar
     3     6     5   ar
     4     7     8   ar
     5    28    30    1
     6    28    22    1
     7     4     5    1
     8     4     3    1
     9     5    10   ar
    10    17    16    1
    11    17    11    1
    12     8    11    1
    13     8     9   ar
    14     3     2    1
    15    16    14    2
    16    11    12    2
    17    22    19    1
    18    22    23    1
    19    20    19    1
    20    19    18   am
    21    14    13    1
    22    12    13    1
    23    10     9   ar
    24    13    15    1
    25    18     2    1
    26    18    21    2
    27    25    24    1
    28     2     1    1
    29    23    24   am
    30    23    27    2
    31    24    26    1
    32     1    31    1
    33     1    33    1
    34    32    31    1
    35    49    47    1
    36    33    34    1
    37    33    36    1
    38    35    34    1
    39    47    46    1
    40    47    48    1
    41    46    45    2
    42    38    39    1
    43    38    37    1
    44    40    39   ar
    45    40    41   ar
    46    36    37    1
    47    36    52    1
    48    39    44   ar
    49    41    42   ar
    50    48    50    2
    51    44    43   ar
    52    42    43   ar
    53    42    45    1
    54    45    51    1
    55    50    51    1
    56    52    55    2
    57    52    53   am
    58    54    53    1
    59    53    56    1
    60    61    57    2
    61    63    62    1
    62    57    56    1
    63    57    58   am
    64    56    62    1
    65    59    58    1
    66    58    60    1
    67    62    64    1
