@<TRIPOS>MOLECULE
/tmp/ewbell/vina_1ec2_1ec2_lig/vina/vina1.pdbqt
 64 67 0 0 0
SMALL
GASTEIGER

@<TRIPOS>ATOM
      1  C15       19.3920   17.5570    6.3410 C.3   203  INH203      0.1880
      2  C14       18.7620   16.6790    5.2690 C.3   203  INH203      0.2440
      3  O1        18.6480   17.3900    4.0230 O.3   203  INH203     -0.3690
      4  C13       17.3330   17.2590    3.3990 C.3   203  INH203      0.2070
      5  C7        16.5570   18.5440    3.5300 C.ar  203  INH203     -0.0350
      6  C12       15.4320   18.8160    2.6710 C.ar  203  INH203      0.0100
      7  C11       14.7330   20.0640    2.8210 C.ar  203  INH203      0.0130
      8  C10       15.1470   21.0440    3.8210 C.ar  203  INH203     -0.0250
      9  C9        16.2810   20.7480    4.6730 C.ar  203  INH203      0.0130
     10  C8        16.9810   19.5080    4.5300 C.ar  203  INH203      0.0100
     11  C38       14.4080   22.3530    3.9720 C.2   203  INH203     -0.0110
     12  C42       15.0940   23.5360    4.4230 C.2   203  INH203      0.0990
     13  N6        14.5020   24.7550    4.5830 N.pl3 203  INH203     -0.3740
     14  C41       13.1500   24.8700    4.2930 C.2   203  INH203      0.0870
     15  H6        15.0380   25.5600    4.9070 H     203  INH203      0.1640
     16  C40       12.3420   23.7860    3.8380 C.2   203  INH203      0.0180
     17  C39       12.9960   22.5110    3.6790 C.3   203  INH203      0.0150
     18  C26       19.6380   15.4580    5.1700 C.2   203  INH203      0.2500
     19  N3        19.5780   14.5900    6.2500 N.am  203  INH203     -0.3450
     20  H32       18.9770   14.8360    7.0100 H     203  INH203      0.1630
     21  O7        20.3270   15.3020    4.1580 O.2   203  INH203     -0.2710
     22  C27       20.3310   13.3410    6.3570 C.3   203  INH203      0.1800
     23  C31       19.4660   12.4040    7.2140 C.2   203  INH203      0.2400
     24  N4        19.9700   11.1160    7.3550 N.am  203  INH203     -0.3640
     25  H41       20.8300   10.8560    6.9160 H     203  INH203      0.1610
     26  C32       19.2340   10.1590    8.1440 C.3   203  INH203      0.1490
     27  O8        18.4030   12.8090    7.7270 O.2   203  INH203     -0.2710
     28  C28       21.7110   13.5460    7.0950 C.3   203  INH203      0.0090
     29  C30       21.5700   14.3600    8.3880 C.3   203  INH203      0.0120
     30  C29       22.8280   14.1710    6.1890 C.3   203  INH203      0.0120
     31  O6        20.7210   17.1130    6.6800 O.3   203  INH203     -0.3900
     32  H31       20.9890   16.4260    6.0820 H     203  INH203      0.2100
     33  C16       18.5250   17.6730    7.5680 C.3   203  INH203      0.1880
     34  O5        18.3010   16.3400    8.0280 O.3   203  INH203     -0.3900
     35  H30       18.1060   15.7790    7.2870 H     203  INH203      0.2100
     36  C17       19.0990   18.7050    8.5650 C.3   203  INH203      0.2440
     37  O4        18.1350   19.7720    8.9040 O.3   203  INH203     -0.3690
     38  C25       18.1920   20.9600    8.1050 C.3   203  INH203      0.2070
     39  C1        16.8970   21.7050    8.1190 C.ar  203  INH203     -0.0350
     40  C6        16.8990   23.1530    8.2280 C.ar  203  INH203      0.0100
     41  C5        15.6570   23.8420    8.2310 C.ar  203  INH203      0.0130
     42  C4        14.3950   23.1320    8.1270 C.ar  203  INH203     -0.0250
     43  C3        14.4370   21.6830    8.0190 C.ar  203  INH203      0.0130
     44  C2        15.6830   20.9840    8.0150 C.ar  203  INH203      0.0100
     45  C33       13.0700   23.8930    8.1390 C.2   203  INH203     -0.0110
     46  C37       11.9650   23.4390    7.3120 C.2   203  INH203      0.0990
     47  N5        10.7350   24.0340    7.2410 N.pl3 203  INH203     -0.3740
     48  C36       10.5280   25.1570    8.0220 C.2   203  INH203      0.0870
     49  H5        10.0000   23.6640    6.6390 H     203  INH203      0.1640
     50  C35       11.5220   25.7260    8.8900 C.2   203  INH203      0.0180
     51  C34       12.8070   25.0680    8.9350 C.3   203  INH203      0.0150
     52  C18       19.5460   17.9910    9.8580 C.2   203  INH203      0.2500
     53  N1        18.5370   17.4290   10.6440 N.am  203  INH203     -0.3450
     54  H15       17.6000   17.5390   10.3120 H     203  INH203      0.1630
     55  O2        20.7440   17.9210   10.1630 O.2   203  INH203     -0.2710
     56  C19       18.7020   16.6740   11.9390 C.3   203  INH203      0.1800
     57  C23       19.1680   15.4590   11.4350 C.2   203  INH203      0.2400
     58  N2        20.6690   15.1100   12.1130 N.am  203  INH203     -0.3640
     59  H24       21.1390   14.2710   11.8390 H     203  INH203      0.1610
     60  C24       21.3120   15.9910   13.0870 C.3   203  INH203      0.1490
     61  O3        18.8880   14.5790   10.7000 O.2   203  INH203     -0.2710
     62  C20       17.3070   16.3890   12.6430 C.3   203  INH203      0.0090
     63  C22       16.1200   16.2030   11.6560 C.3   203  INH203      0.0120
     64  C21       17.3170   15.1690   13.6140 C.3   203  INH203      0.0120
@<TRIPOS>BOND
     1     6     7   ar
     2     6     5   ar
     3     7     8   ar
     4     4     5    1
     5     4     3    1
     6     5    10   ar
     7    17    16    1
     8    17    11    1
     9     8    11    1
    10     8     9   ar
    11    16    14    2
    12    11    12    2
    13     3     2    1
    14    21    18    2
    15    14    13    1
    16    12    13    1
    17    10     9   ar
    18    13    15    1
    19    18     2    1
    20    18    19   am
    21     2     1    1
    22    32    31    1
    23    30    28    1
    24    19    22    1
    25    19    20    1
    26     1    31    1
    27     1    33    1
    28    22    28    1
    29    22    23    1
    30    49    47    1
    31    25    24    1
    32    28    29    1
    33    23    24   am
    34    23    27    2
    35    47    46    1
    36    47    48    1
    37    35    34    1
    38    46    45    2
    39    24    26    1
    40    33    34    1
    41    33    36    1
    42    44    43   ar
    43    44    39   ar
    44    43    42   ar
    45    48    50    2
    46    38    39    1
    47    38    37    1
    48    39    40   ar
    49    42    45    1
    50    42    41   ar
    51    45    51    1
    52    40    41   ar
    53    36    37    1
    54    36    52    1
    55    50    51    1
    56    52    55    2
    57    52    53   am
    58    54    53    1
    59    53    56    1
    60    61    57    2
    61    57    56    1
    62    57    58   am
    63    63    62    1
    64    59    58    1
    65    56    62    1
    66    58    60    1
    67    62    64    1
