@<TRIPOS>MOLECULE
./ligand/1qkt_lig.pdb
 44 47 0 0 0
SMALL
GASTEIGER

@<TRIPOS>ATOM
      1  C1         0.8670   53.1380  165.0150 C.ar  501  INH501     -0.0546
      2  C2         2.2480   53.1920  164.7900 C.ar  501  INH501     -0.0199
      3  C3         3.0360   52.0260  164.9340 C.ar  501  INH501      0.1171
      4  O1         4.3950   52.1060  164.7050 O.3   501  INH501     -0.5068
      5  C4         2.4410   50.7930  165.3090 C.ar  501  INH501     -0.0167
      6  C5         1.0210   50.7210  165.5500 C.ar  501  INH501     -0.0405
      7  C6         0.3830   49.3850  165.9720 C.3   501  INH501     -0.0270
      8  C7        -1.1480   49.4320  166.2430 C.3   501  INH501     -0.0454
      9  C8        -1.8940   50.4480  165.3740 C.3   501  INH501     -0.0305
     10  C9        -1.2990   51.8780  165.6350 C.3   501  INH501     -0.0125
     11  C10        0.2190   51.9220  165.3920 C.ar  501  INH501     -0.0406
     12  C11       -2.0700   52.8890  164.7620 C.3   501  INH501     -0.0454
     13  C12       -3.5920   52.8930  164.9630 C.3   501  INH501     -0.0445
     14  C13       -4.2090   51.5020  164.7630 C.3   501  INH501     -0.0030
     15  C14       -3.4470   50.4920  165.6850 C.3   501  INH501     -0.0298
     16  C15       -4.3350   49.2580  165.5460 C.3   501  INH501     -0.0470
     17  C16       -5.7850   49.8370  165.7130 C.3   501  INH501     -0.0261
     18  C17       -5.6600   51.3340  165.3010 C.3   501  INH501      0.0609
     19  O2        -6.7310   51.6750  164.3560 O.3   501  INH501     -0.3912
     20  C18       -4.1860   51.1040  163.2410 C.3   501  INH501     -0.0569
     21  H1         0.2760   54.0400  164.9000 H     501  INH501      0.0622
     22  H2         2.7140   54.1280  164.5050 H     501  INH501      0.0654
     23  H3         4.7890   51.2520  164.8390 H     501  INH501      0.2921
     24  H4         3.0540   49.9050  165.4140 H     501  INH501      0.0657
     25  H5         0.8800   49.0480  166.8930 H     501  INH501      0.0313
     26  H6         0.5630   48.6550  165.1690 H     501  INH501      0.0313
     27  H7        -1.3060   49.6950  167.2990 H     501  INH501      0.0271
     28  H8        -1.5660   48.4340  166.0470 H     501  INH501      0.0271
     29  H9        -1.7520   50.1780  164.3170 H     501  INH501      0.0310
     30  H10       -1.4710   52.1360  166.6900 H     501  INH501      0.0352
     31  H11       -1.8660   52.6540  163.7070 H     501  INH501      0.0271
     32  H12       -1.6930   53.8960  164.9930 H     501  INH501      0.0271
     33  H13       -4.0430   53.5870  164.2390 H     501  INH501      0.0272
     34  H14       -3.8130   53.2350  165.9850 H     501  INH501      0.0272
     35  H15       -3.5200   50.8290  166.7300 H     501  INH501      0.0310
     36  H16       -4.1120   48.5210  166.3320 H     501  INH501      0.0269
     37  H17       -4.2090   48.7910  164.5580 H     501  INH501      0.0269
     38  H18       -6.1210   49.7480  166.7570 H     501  INH501      0.0290
     39  H19       -6.4920   49.3110  165.0540 H     501  INH501      0.0290
     40  H20       -5.7790   51.9740  166.1880 H     501  INH501      0.0599
     41  H21       -7.5740   51.5420  164.7720 H     501  INH501      0.2098
     42  H22       -3.1650   51.2180  162.8480 H     501  INH501      0.0236
     43  H23       -4.8700   51.7580  162.6810 H     501  INH501      0.0236
     44  H24       -4.5060   50.0570  163.1310 H     501  INH501      0.0236
@<TRIPOS>BOND
     1     1    21    1
     2     1    11   ar
     3     1     2   ar
     4     2    22    1
     5     2     3   ar
     6     3     5   ar
     7     3     4    1
     8     4    23    1
     9     5    24    1
    10     5     6   ar
    11     6    11   ar
    12     6     7    1
    13     7    26    1
    14     7    25    1
    15     7     8    1
    16     8    28    1
    17     8    27    1
    18     8     9    1
    19     9    29    1
    20     9    15    1
    21     9    10    1
    22    10    30    1
    23    10    12    1
    24    10    11    1
    25    12    32    1
    26    12    31    1
    27    12    13    1
    28    13    34    1
    29    13    33    1
    30    13    14    1
    31    14    20    1
    32    14    18    1
    33    14    15    1
    34    15    35    1
    35    15    16    1
    36    16    37    1
    37    16    36    1
    38    16    17    1
    39    17    39    1
    40    17    38    1
    41    17    18    1
    42    18    40    1
    43    18    19    1
    44    19    41    1
    45    20    44    1
    46    20    43    1
    47    20    42    1
