@<TRIPOS>MOLECULE
/tmp/ewbell/vina_1qkt_1qkt_lig/vina/vina5.pdbqt
 22 25 0 0 0
SMALL
GASTEIGER

@<TRIPOS>ATOM
      1  C1        -3.2920   53.2900  160.3270 C.ar  501  INH501      0.0110
      2  C2        -3.9370   54.1650  159.4440 C.ar  501  INH501      0.0370
      3  C3        -5.1620   54.7690  159.8130 C.ar  501  INH501      0.0660
      4  C4        -5.7510   54.4980  161.0760 C.ar  501  INH501      0.0440
      5  C5        -5.1020   53.5950  161.9950 C.ar  501  INH501     -0.0490
      6  C6        -5.7530   53.2910  163.3570 C.3   501  INH501      0.0390
      7  C7        -4.9880   52.2750  164.2510 C.3   501  INH501      0.0100
      8  C8        -3.4680   52.3240  164.0720 C.3   501  INH501     -0.0010
      9  C9        -3.1210   52.0230  162.5700 C.3   501  INH501      0.0230
     10  C10       -3.8410   52.9850  161.6100 C.ar  501  INH501     -0.0470
     11  C11       -1.5870   52.0640  162.4110 C.3   501  INH501      0.0100
     12  C12       -0.8120   51.1210  163.3430 C.3   501  INH501      0.0130
     13  C13       -1.1580   51.3500  164.8200 C.3   501  INH501     -0.0140
     14  C14       -2.7130   51.2650  164.9780 C.3   501  INH501      0.0010
     15  C15       -2.8440   51.2620  166.4990 C.3   501  INH501      0.0080
     16  C16       -1.7540   50.2260  166.9520 C.3   501  INH501      0.0330
     17  C17       -0.7150   50.2160  165.7910 C.3   501  INH501      0.1260
     18  C18       -0.5490   52.7110  165.3230 C.3   501  INH501      0.0180
     19  O1        -5.7760   55.6280  158.9250 O.3   501  INH501     -0.3610
     20  H3        -6.6940   55.7170  159.1540 H     501  INH501      0.2170
     21  O2         0.6400   50.3450  166.3420 O.3   501  INH501     -0.3950
     22  H21        0.9710   49.4860  166.5720 H     501  INH501      0.2100
@<TRIPOS>BOND
     1    19    20    1
     2    19     3    1
     3     2     3   ar
     4     2     1   ar
     5     3     4   ar
     6     1    10   ar
     7     4     5   ar
     8    10     5   ar
     9    10     9    1
    10     5     6    1
    11    11     9    1
    12    11    12    1
    13     9     8    1
    14    12    13    1
    15     6     7    1
    16     8     7    1
    17     8    14    1
    18    13    14    1
    19    13    18    1
    20    13    17    1
    21    14    15    1
    22    17    21    1
    23    17    16    1
    24    21    22    1
    25    15    16    1
