@<TRIPOS>MOLECULE
/tmp/ewbell/vina_1qkt_1qkt_lig/vina/vina1.pdbqt
 22 25 0 0 0
SMALL
GASTEIGER

@<TRIPOS>ATOM
      1  C1         0.4480   52.4130  164.6250 C.ar  501  INH501      0.0110
      2  C2         1.8320   52.4860  164.4300 C.ar  501  INH501      0.0370
      3  C3         2.6650   51.4250  164.8550 C.ar  501  INH501      0.0660
      4  C4         2.1120   50.2790  165.4840 C.ar  501  INH501      0.0440
      5  C5         0.6880   50.1900  165.6980 C.ar  501  INH501     -0.0490
      6  C6         0.0950   48.9520  166.3950 C.3   501  INH501      0.0390
      7  C7        -1.4460   48.9800  166.6080 C.3   501  INH501      0.0100
      8  C8        -2.2030   49.7340  165.5110 C.3   501  INH501     -0.0010
      9  C9        -1.6820   51.2150  165.4570 C.3   501  INH501      0.0230
     10  C10       -0.1590   51.2820  165.2500 C.ar  501  INH501     -0.0470
     11  C11       -2.4640   51.9620  164.3570 C.3   501  INH501      0.0100
     12  C12       -3.9910   51.9330  164.5120 C.3   501  INH501      0.0130
     13  C13       -4.5380   50.5030  164.6160 C.3   501  INH501     -0.0140
     14  C14       -3.7670   49.7670  165.7630 C.3   501  INH501      0.0010
     15  C15       -4.5940   48.4890  165.8840 C.3   501  INH501      0.0080
     16  C16       -6.0730   49.0160  165.8770 C.3   501  INH501      0.0330
     17  C17       -5.9990   50.3860  165.1400 C.3   501  INH501      0.1260
     18  C18       -4.4400   49.7740  163.2250 C.3   501  INH501      0.0180
     19  O1         4.0270   51.5210  164.6500 O.3   501  INH501     -0.3610
     20  H3         4.4760   51.4900  165.4870 H     501  INH501      0.2170
     21  O2        -7.0480   50.4490  164.1140 O.3   501  INH501     -0.3950
     22  H21       -7.7880   49.9190  164.3850 H     501  INH501      0.2100
@<TRIPOS>BOND
     1    18    13    1
     2    21    22    1
     3    21    17    1
     4    11    12    1
     5    11     9    1
     6     2     1   ar
     7     2     3   ar
     8    12    13    1
     9    13    17    1
    10    13    14    1
    11     1    10   ar
    12    19     3    1
    13    19    20    1
    14     3     4   ar
    15    17    16    1
    16    10     9    1
    17    10     5   ar
    18     9     8    1
    19     4     5   ar
    20     8    14    1
    21     8     7    1
    22     5     6    1
    23    14    15    1
    24    16    15    1
    25     6     7    1
