@<TRIPOS>MOLECULE
/tmp/ewbell/vina_1qkt_1qkt_lig/vina/vina3.pdbqt
 22 25 0 0 0
SMALL
GASTEIGER

@<TRIPOS>ATOM
      1  C1         0.6310   49.6170  164.8510 C.ar  501  INH501      0.0110
      2  C2         1.9480   49.6860  165.3210 C.ar  501  INH501      0.0370
      3  C3         2.5370   50.9420  165.5990 C.ar  501  INH501      0.0660
      4  C4         1.8050   52.1430  165.4020 C.ar  501  INH501      0.0440
      5  C5         0.4500   52.0900  164.9130 C.ar  501  INH501     -0.0490
      6  C6        -0.3340   53.3960  164.6870 C.3   501  INH501      0.0390
      7  C7        -1.7720   53.2220  164.1210 C.3   501  INH501      0.0100
      8  C8        -2.4600   51.9330  164.5770 C.3   501  INH501     -0.0010
      9  C9        -1.5950   50.7040  164.1220 C.3   501  INH501      0.0230
     10  C10       -0.1490   50.7950  164.6380 C.ar  501  INH501     -0.0470
     11  C11       -2.3080   49.4150  164.5790 C.3   501  INH501      0.0100
     12  C12       -3.7560   49.2660  164.0910 C.3   501  INH501      0.0130
     13  C13       -4.6260   50.4710  164.4750 C.3   501  INH501     -0.0140
     14  C14       -3.9140   51.7700  163.9690 C.3   501  INH501      0.0010
     15  C15       -5.0110   52.8040  164.2070 C.3   501  INH501      0.0080
     16  C16       -6.2960   52.1040  163.6360 C.3   501  INH501      0.0330
     17  C17       -5.9820   50.5810  163.7170 C.3   501  INH501      0.1260
     18  C18       -4.9110   50.4720  166.0220 C.3   501  INH501      0.0180
     19  O1         3.8360   50.9820  166.0630 O.3   501  INH501     -0.3610
     20  H3         4.4050   51.3190  165.3810 H     501  INH501      0.2170
     21  O2        -7.1130   49.8780  164.3350 O.3   501  INH501     -0.3950
     22  H21       -6.7870   49.1770  164.8870 H     501  INH501      0.2100
@<TRIPOS>BOND
     1    16    17    1
     2    16    15    1
     3    17    21    1
     4    17    13    1
     5    14    15    1
     6    14    13    1
     7    14     8    1
     8    12    13    1
     9    12    11    1
    10     7     8    1
    11     7     6    1
    12     9     8    1
    13     9    11    1
    14     9    10    1
    15    21    22    1
    16    13    18    1
    17    10     1   ar
    18    10     5   ar
    19     6     5    1
    20     1     2   ar
    21     5     4   ar
    22     2     3   ar
    23    20    19    1
    24     4     3   ar
    25     3    19    1
