@<TRIPOS>MOLECULE
/tmp/ewbell/vina_1qkt_1qkt_lig/vina/vina2.pdbqt
 22 25 0 0 0
SMALL
GASTEIGER

@<TRIPOS>ATOM
      1  C1         0.5610   52.7460  165.1830 C.ar  501  INH501      0.0110
      2  C2         1.9540   52.6140  165.1500 C.ar  501  INH501      0.0370
      3  C3         2.5460   51.3290  165.1810 C.ar  501  INH501      0.0660
      4  C4         1.7390   50.1630  165.2490 C.ar  501  INH501      0.0440
      5  C5         0.3030   50.2810  165.2890 C.ar  501  INH501     -0.0490
      6  C6        -0.5670   49.0140  165.3790 C.3   501  INH501      0.0390
      7  C7        -2.1010   49.2610  165.4560 C.3   501  INH501      0.0100
      8  C8        -2.5610   50.5080  164.6960 C.3   501  INH501     -0.0010
      9  C9        -1.8250   51.7650  165.2840 C.3   501  INH501      0.0230
     10  C10       -0.2960   51.6040  165.2490 C.ar  501  INH501     -0.0470
     11  C11       -2.3090   53.0120  164.5160 C.3   501  INH501      0.0100
     12  C12       -3.8290   53.2260  164.5180 C.3   501  INH501      0.0130
     13  C13       -4.5910   52.0010  163.9930 C.3   501  INH501     -0.0140
     14  C14       -4.1230   50.7490  164.8080 C.3   501  INH501      0.0010
     15  C15       -5.1370   49.7110  164.3370 C.3   501  INH501      0.0080
     16  C16       -6.5040   50.4790  164.4180 C.3   501  INH501      0.0330
     17  C17       -6.1160   51.9840  164.3020 C.3   501  INH501      0.1260
     18  C18       -4.3880   51.8520  162.4400 C.3   501  INH501      0.0180
     19  O1         3.9220   51.2270  165.1460 O.3   501  INH501     -0.3610
     20  H3         4.2680   51.3120  166.0270 H     501  INH501      0.2170
     21  O2        -6.9740   52.6370  163.3050 O.3   501  INH501     -0.3950
     22  H21       -6.4570   52.8550  162.5380 H     501  INH501      0.2100
@<TRIPOS>BOND
     1    18    13    1
     2    22    21    1
     3    21    17    1
     4    13    17    1
     5    13    12    1
     6    13    14    1
     7    17    16    1
     8    15    16    1
     9    15    14    1
    10    11    12    1
    11    11     9    1
    12     8    14    1
    13     8     9    1
    14     8     7    1
    15    19     3    1
    16    19    20    1
    17     2     3   ar
    18     2     1   ar
    19     3     4   ar
    20     1    10   ar
    21    10     9    1
    22    10     5   ar
    23     4     5   ar
    24     5     6    1
    25     6     7    1
