@<TRIPOS>MOLECULE
/tmp/ewbell/vina_1qkt_1qkt_lig/vina/vina4.pdbqt
 22 25 0 0 0
SMALL
GASTEIGER

@<TRIPOS>ATOM
      1  C1        -4.2970   52.7340  162.3360 C.ar  501  INH501      0.0110
      2  C2        -5.5190   53.3930  162.1500 C.ar  501  INH501      0.0370
      3  C3        -6.6210   53.0920  162.9830 C.ar  501  INH501      0.0660
      4  C4        -6.5060   52.1200  164.0120 C.ar  501  INH501      0.0440
      5  C5        -5.2570   51.4280  164.2130 C.ar  501  INH501     -0.0490
      6  C6        -5.1420   50.3630  165.3200 C.3   501  INH501      0.0390
      7  C7        -3.7620   49.6530  165.4220 C.3   501  INH501      0.0100
      8  C8        -2.5820   50.5460  165.0300 C.3   501  INH501     -0.0010
      9  C9        -2.7800   51.0340  163.5500 C.3   501  INH501      0.0230
     10  C10       -4.1280   51.7500  163.3570 C.ar  501  INH501     -0.0470
     11  C11       -1.5770   51.9210  163.1680 C.3   501  INH501      0.0100
     12  C12       -0.2030   51.2580  163.3370 C.3   501  INH501      0.0130
     13  C13        0.0140   50.7240  164.7600 C.3   501  INH501     -0.0140
     14  C14       -1.1910   49.7920  165.1210 C.3   501  INH501      0.0010
     15  C15       -0.6890   49.1750  166.4240 C.3   501  INH501      0.0080
     16  C16        0.7920   48.7770  166.0870 C.3   501  INH501      0.0330
     17  C17        1.1990   49.7270  164.9220 C.3   501  INH501      0.1260
     18  C18        0.2140   51.9130  165.7700 C.3   501  INH501      0.0180
     19  O1        -7.8140   53.7570  162.7800 O.3   501  INH501     -0.3610
     20  H3        -8.0740   54.1920  163.5830 H     501  INH501      0.2170
     21  O2         2.5040   50.3330  165.2150 O.3   501  INH501     -0.3950
     22  H21        3.1950   49.7450  164.9380 H     501  INH501      0.2100
@<TRIPOS>BOND
     1     2     1   ar
     2     2     3   ar
     3     1    10   ar
     4    19     3    1
     5    19    20    1
     6     3     4   ar
     7    11    12    1
     8    11     9    1
     9    12    13    1
    10    10     9    1
    11    10     5   ar
    12     9     8    1
    13     4     5   ar
    14     5     6    1
    15    13    17    1
    16    13    14    1
    17    13    18    1
    18    17    21    1
    19    17    16    1
    20    22    21    1
    21     8    14    1
    22     8     7    1
    23    14    15    1
    24     6     7    1
    25    16    15    1
