@<TRIPOS>MOLECULE
./ligand/1tog_lig.pdb
 20 20 0 0 0
SMALL
GASTEIGER

@<TRIPOS>ATOM
      1  C1        47.5630   92.4530  -14.4790 C.2   797  INH797      0.3563
      2  O1        47.8650   92.0740  -15.6190 O.co2 797  INH797     -0.2464
      3  O2        46.3170   92.8790  -14.2670 O.co2 797  INH797     -0.2464
      4  C2        48.5460   92.4760  -13.3110 C.3   797  INH797      0.0531
      5  C3        49.2800   91.1500  -13.0290 C.3   797  INH797     -0.0175
      6  C4        48.4030   90.1070  -12.3430 C.ar  797  INH797     -0.0468
      7  C5        48.5420   89.8480  -10.9770 C.ar  797  INH797     -0.0586
      8  C6        47.7520   88.8680  -10.3700 C.ar  797  INH797     -0.0615
      9  C7        46.8060   88.1360  -11.1090 C.ar  797  INH797     -0.0617
     10  C8        46.6410   88.4030  -12.4770 C.ar  797  INH797     -0.0615
     11  C9        47.4560   89.3810  -13.0780 C.ar  797  INH797     -0.0586
     12  H1        47.9870   92.7530  -12.4050 H     797  INH797      0.0382
     13  H2        49.3050   93.2440  -13.5230 H     797  INH797      0.0382
     14  H3        50.1440   91.3600  -12.3810 H     797  INH797      0.0318
     15  H4        49.6320   90.7360  -13.9850 H     797  INH797      0.0318
     16  H5        49.2620   90.4060  -10.3890 H     797  INH797      0.0620
     17  H6        47.8710   88.6690   -9.3110 H     797  INH797      0.0618
     18  H7        46.2090   87.3710  -10.6260 H     797  INH797      0.0618
     19  H8        45.9010   87.8670  -13.0590 H     797  INH797      0.0618
     20  H9        47.3480   89.5780  -14.1390 H     797  INH797      0.0620
@<TRIPOS>BOND
     1     2     1   ar
     2     1     3   ar
     3     1     4    1
     4    20    11    1
     5    15     5    1
     6    13     4    1
     7     4     5    1
     8     4    12    1
     9    11    10   ar
    10    11     6   ar
    11    19    10    1
    12     5    14    1
    13     5     6    1
    14    10     9   ar
    15     6     7   ar
    16     9    18    1
    17     9     8   ar
    18     7    16    1
    19     7     8   ar
    20     8    17    1
