@<TRIPOS>MOLECULE
/tmp/ewbell/vina_1tog_1tog_lig/vina/vina3.pdbqt
 12 12 0 0 0
SMALL
GASTEIGER

@<TRIPOS>ATOM
      1  C4        53.9240   85.9720  -19.7890 C.ar  797  INH797     -0.0580
      2  C5        53.8710   85.4940  -21.1010 C.ar  797  INH797      0.0070
      3  C6        54.3910   84.2320  -21.4040 C.ar  797  INH797      0.0010
      4  C7        54.9790   83.4300  -20.4100 C.ar  797  INH797      0.0000
      5  C8        55.0590   83.9090  -19.0930 C.ar  797  INH797      0.0010
      6  C9        54.5150   85.1740  -18.8000 C.ar  797  INH797      0.0070
      7  C3        53.3320   87.3320  -19.4330 C.3   797  INH797      0.0490
      8  C2        54.3000   88.2300  -18.6380 C.3   797  INH797      0.1140
      9  C1        55.3570   88.9580  -19.4640 C.2   797  INH797      0.1390
     10  O1        56.5700   88.7150  -19.3900 O.2   797  INH797     -0.6500
     11  O2        54.9580   89.9200  -20.2980 O.3   797  INH797     -0.7760
     12  H         54.0840   90.2540  -20.2450 H     797  INH797      0.1670
@<TRIPOS>BOND
     1     3     2   ar
     2     3     4   ar
     3     2     1   ar
     4     4     5   ar
     5    11    12    1
     6    11     9    1
     7     1     7    1
     8     1     6   ar
     9     9    10    2
    10     9     8    1
    11     7     8    1
    12     5     6   ar
