@<TRIPOS>MOLECULE
/tmp/ewbell/vina_1tog_1tog_lig/vina/vina4.pdbqt
 12 12 0 0 0
SMALL
GASTEIGER

@<TRIPOS>ATOM
      1  C4        55.1350   85.3210  -21.5150 C.ar  797  INH797     -0.0580
      2  C5        55.5020   84.0080  -21.8240 C.ar  797  INH797      0.0070
      3  C6        56.7200   83.7570  -22.4620 C.ar  797  INH797      0.0010
      4  C7        57.5880   84.8060  -22.8100 C.ar  797  INH797      0.0000
      5  C8        57.2210   86.1310  -22.5260 C.ar  797  INH797      0.0010
      6  C9        55.9990   86.3670  -21.8670 C.ar  797  INH797      0.0070
      7  C3        53.8250   85.6110  -20.7900 C.3   797  INH797      0.0490
      8  C2        54.0220   86.0470  -19.3240 C.3   797  INH797      0.1140
      9  C1        53.9130   87.5470  -19.0590 C.2   797  INH797      0.1390
     10  O1        53.1830   88.3050  -19.7120 O.2   797  INH797     -0.6500
     11  O2        54.6560   88.0730  -18.0840 O.3   797  INH797     -0.7760
     12  H         55.2370   87.5280  -17.5920 H     797  INH797      0.1670
@<TRIPOS>BOND
     1     4     5   ar
     2     4     3   ar
     3     5     6   ar
     4     3     2   ar
     5     6     1   ar
     6     2     1   ar
     7     1     7    1
     8     7     8    1
     9    10     9    2
    10     8     9    1
    11     9    11    1
    12    11    12    1
