@<TRIPOS>MOLECULE
/tmp/ewbell/vina_1tog_1tog_lig/vina/vina1.pdbqt
 12 12 0 0 0
SMALL
GASTEIGER

@<TRIPOS>ATOM
      1  C4        48.3420   89.9820  -12.1670 C.ar  797  INH797     -0.0580
      2  C5        47.3310   89.4300  -12.9590 C.ar  797  INH797      0.0070
      3  C6        46.4850   88.4540  -12.4260 C.ar  797  INH797      0.0010
      4  C7        46.6340   88.0050  -11.1020 C.ar  797  INH797      0.0000
      5  C8        47.6600   88.5360  -10.3040 C.ar  797  INH797      0.0010
      6  C9        48.4930   89.5310  -10.8490 C.ar  797  INH797      0.0070
      7  C3        49.2540   91.0720  -12.7210 C.3   797  INH797      0.0490
      8  C2        48.7090   91.7310  -14.0040 C.3   797  INH797      0.1140
      9  C1        47.7810   92.9250  -13.7920 C.2   797  INH797      0.1390
     10  O1        48.1190   93.9560  -13.1950 O.2   797  INH797     -0.6500
     11  O2        46.5340   92.8470  -14.2580 O.3   797  INH797     -0.7760
     12  H         45.8880   93.4630  -13.9730 H     797  INH797      0.1670
@<TRIPOS>BOND
     1    11    12    1
     2    11     9    1
     3     8     9    1
     4     8     7    1
     5     9    10    2
     6     2     3   ar
     7     2     1   ar
     8     7     1    1
     9     3     4   ar
    10     1     6   ar
    11     4     5   ar
    12     6     5   ar
