@<TRIPOS>MOLECULE
/tmp/ewbell/vina_1tog_1tog_lig/vina/vina5.pdbqt
 12 12 0 0 0
SMALL
GASTEIGER

@<TRIPOS>ATOM
      1  C4        48.1970   90.9350  -12.1950 C.ar  797  INH797     -0.0580
      2  C5        47.4580   92.0520  -12.5930 C.ar  797  INH797      0.0070
      3  C6        48.0410   93.0140  -13.4220 C.ar  797  INH797      0.0010
      4  C7        49.3700   92.8860  -13.8620 C.ar  797  INH797      0.0000
      5  C8        50.1300   91.7800  -13.4500 C.ar  797  INH797      0.0010
      6  C9        49.5240   90.8110  -12.6290 C.ar  797  INH797      0.0070
      7  C3        47.5660   89.8590  -11.3170 C.3   797  INH797      0.0490
      8  C2        47.2630   88.5520  -12.0760 C.3   797  INH797      0.1140
      9  C1        46.0580   88.5950  -13.0130 C.2   797  INH797      0.1390
     10  O1        45.2040   89.4920  -12.9880 O.2   797  INH797     -0.6500
     11  O2        45.9060   87.6050  -13.8950 O.3   797  INH797     -0.7760
     12  H         45.9770   86.7140  -13.6150 H     797  INH797      0.1670
@<TRIPOS>BOND
     1    11    12    1
     2    11     9    1
     3     4     5   ar
     4     4     3   ar
     5     5     6   ar
     6     3     2   ar
     7     9    10    2
     8     9     8    1
     9     6     1   ar
    10     2     1   ar
    11     1     7    1
    12     8     7    1
