@<TRIPOS>MOLECULE
/tmp/ewbell/vina_1tog_1tog_lig/vina/vina2.pdbqt
 12 12 0 0 0
SMALL
GASTEIGER

@<TRIPOS>ATOM
      1  C4        48.6910   90.0690  -13.0460 C.ar  797  INH797     -0.0580
      2  C5        47.4270   90.1710  -13.6330 C.ar  797  INH797      0.0070
      3  C6        47.0120   91.3850  -14.1880 C.ar  797  INH797      0.0010
      4  C7        47.8440   92.5180  -14.1610 C.ar  797  INH797      0.0000
      5  C8        49.1060   92.4350  -13.5530 C.ar  797  INH797      0.0010
      6  C9        49.5170   91.2010  -13.0140 C.ar  797  INH797      0.0070
      7  C3        49.1730   88.7440  -12.4640 C.3   797  INH797      0.0490
      8  C2        48.3370   88.2650  -11.2610 C.3   797  INH797      0.1140
      9  C1        48.7670   88.8070   -9.8990 C.2   797  INH797      0.1390
     10  O1        48.9500   88.0910   -8.9050 O.2   797  INH797     -0.6500
     11  O2        48.9360   90.1240   -9.7670 O.3   797  INH797     -0.7760
     12  H         48.6390   90.7040  -10.4400 H     797  INH797      0.1670
@<TRIPOS>BOND
     1     3     4   ar
     2     3     2   ar
     3     4     5   ar
     4     2     1   ar
     5     5     6   ar
     6     1     6   ar
     7     1     7    1
     8     7     8    1
     9     8     9    1
    10    12    11    1
    11     9    11    1
    12     9    10    2
