@<TRIPOS>MOLECULE
./ligand/2ff1_lig.pdb
 35 37 0 0 0
SMALL
GASTEIGER

@<TRIPOS>ATOM
      1  O1        22.3560   27.3620   42.8460 O.3   641  INH641     -0.3894
      2  H1        22.7210   26.8970   43.6020 H     641  INH641      0.2097
      3  C1        23.2550   28.4470   42.5240 C.3   641  INH641      0.0893
      4  H2        23.2990   29.1070   43.3900 H     641  INH641      0.0614
      5  H3        22.8310   28.9860   41.6770 H     641  INH641      0.0614
      6  C2        24.7420   28.0510   42.1460 C.3   641  INH641      0.0308
      7  H4        25.2080   27.8790   43.1160 H     641  INH641      0.0900
      8  N1        24.6540   26.9160   41.1770 N.4   641  INH641      0.2402
      9  H5        25.3780   26.2470   41.3950 H     641  INH641      0.2025
     10  H6        23.7500   26.4770   41.2730 H     641  INH641      0.2025
     11  C3        25.6250   29.0850   41.4010 C.3   641  INH641      0.1310
     12  H7        25.3200   30.1020   41.6490 H     641  INH641      0.0679
     13  O2        27.0270   28.9910   41.7960 O.3   641  INH641     -0.3833
     14  H8        27.2840   29.8420   42.1600 H     641  INH641      0.2102
     15  C4        25.4420   28.7880   39.8550 C.3   641  INH641      0.1330
     16  H9        24.7970   29.5430   39.4040 H     641  INH641      0.0682
     17  O3        26.6680   28.9030   39.0640 O.3   641  INH641     -0.3830
     18  H10       27.0270   29.7910   39.1260 H     641  INH641      0.2102
     19  C5        24.8200   27.3540   39.7830 C.3   641  INH641      0.0360
     20  H11       25.4850   26.7280   39.1880 H     641  INH641      0.0931
     21  C6        23.3550   27.2750   39.0400 C.ar  641  INH641      0.0415
     22  C7        22.1550   27.1490   39.6600 C.ar  641  INH641      0.0127
     23  H12       22.0230   27.0770   40.7290 H     641  INH641      0.0812
     24  N2        21.0910   27.1240   38.7090 N.ar  641  INH641     -0.3551
     25  H13       20.0990   27.0420   38.8810 H     641  INH641      0.1655
     26  C8        21.7540   27.2400   37.4790 C.ar  641  INH641      0.1234
     27  C9        21.1170   27.2720   36.1350 C.2   641  INH641      0.2636
     28  O4        19.9060   27.2030   35.8620 O.2   641  INH641     -0.2685
     29  N3        22.1290   27.3960   35.1300 N.am  641  INH641     -0.2888
     30  H14       25.0280   27.5130   36.8000 H     641  INH641      0.1480
     31  C10       23.5420   27.4820   35.3580 C.3   641  INH641      0.1231
     32  H15       24.2210   27.5720   34.5230 H     641  INH641      0.0743
     33  N4        24.0180   27.4500   36.6100 N.pl3 641  INH641     -0.3210
     34  C11       23.1070   27.3300   37.6300 C.ar  641  INH641      0.0674
     35  H16       21.8210   27.4250   34.1790 H     641  INH641      0.1510
@<TRIPOS>BOND
     1     1     3    1
     2     1     2    1
     3     3     6    1
     4     3     5    1
     5     3     4    1
     6     6    11    1
     7     6     8    1
     8     6     7    1
     9     8    19    1
    10     8    10    1
    11     8     9    1
    12    11    15    1
    13    11    13    1
    14    11    12    1
    15    13    14    1
    16    15    19    1
    17    15    17    1
    18    15    16    1
    19    17    18    1
    20    19    21    1
    21    19    20    1
    22    21    34   ar
    23    21    22   ar
    24    22    24   ar
    25    22    23    1
    26    24    26   ar
    27    24    25    1
    28    26    34   ar
    29    26    27    1
    30    27    29   am
    31    27    28    2
    32    29    35    1
    33    29    31    1
    34    30    33    1
    35    31    33    1
    36    31    32    1
    37    33    34    1
