@<TRIPOS>MOLECULE
/tmp/ewbell/vina_2ff1_2ff1_lig/vina/vina5.pdbqt
 27 29 0 0 0
SMALL
GASTEIGER

@<TRIPOS>ATOM
      1  C2        18.5920   36.4070   30.9030 C.3   641  INH641      0.2410
      2  N1        18.8250   35.1560   30.1190 N.4   641  INH641     -0.0550
      3  H5        19.8180   35.0480   29.9700 H     641  INH641      0.2780
      4  H6        18.4770   34.3710   30.6500 H     641  INH641      0.2780
      5  C3        18.3260   37.4690   29.8050 C.3   641  INH641      0.1820
      6  C4        17.7780   36.6750   28.5480 C.3   641  INH641      0.1840
      7  C5        18.1510   35.1780   28.8120 C.3   641  INH641      0.2540
      8  C6        16.8700   34.1490   28.8750 C.ar  641  INH641      0.0190
      9  C11       16.8150   32.8180   28.3480 C.ar  641  INH641      0.0710
     10  C8        15.5620   32.3540   28.6210 C.ar  641  INH641      0.1280
     11  N4        17.8010   32.1200   27.6960 N.pl3 641  INH641     -0.3710
     12  N2        14.7830   33.3000   29.3020 N.ar  641  INH641     -0.3590
     13  C9        15.1300   30.9910   28.2100 C.2   641  INH641      0.2710
     14  C7        15.6650   34.4150   29.4380 C.ar  641  INH641      0.1000
     15  H13       13.8290   33.2140   29.6210 H     641  INH641      0.1650
     16  N3        16.2100   30.3300   27.5400 N.am  641  INH641     -0.3400
     17  O4        14.0250   30.4520   28.3920 O.2   641  INH641     -0.2660
     18  H16       16.0400   29.3990   27.2180 H     641  INH641      0.1640
     19  C10       17.5110   30.8770   27.2900 C.3   641  INH641      0.2470
     20  H14       18.7270   32.5370   27.5250 H     641  INH641      0.1610
     21  O3        18.2800   37.1540   27.2590 O.3   641  INH641     -0.3900
     22  H10       17.5670   37.2060   26.6180 H     641  INH641      0.2100
     23  C1        17.4450   36.0850   31.9480 C.3   641  INH641      0.1990
     24  O1        17.8490   35.9310   33.3280 O.3   641  INH641     -0.3990
     25  H1        18.6880   35.4650   33.3350 H     641  INH641      0.2090
     26  O2        19.5310   38.2220   29.4710 O.3   641  INH641     -0.3910
     27  H8        19.2640   38.9790   28.9430 H     641  INH641      0.2100
@<TRIPOS>BOND
     1    22    21    1
     2    18    16    1
     3    21     6    1
     4    19    16    1
     5    19    11    1
     6    20    11    1
     7    16    13   am
     8    11     9    1
     9    13    17    2
    10    13    10    1
    11     9    10   ar
    12     9     8   ar
    13     6     7    1
    14     6     5    1
    15    10    12   ar
    16     7     8    1
    17     7     2    1
    18     8    14   ar
    19    27    26    1
    20    12    14   ar
    21    12    15    1
    22    26     5    1
    23     5     1    1
    24     3     2    1
    25     2     4    1
    26     2     1    1
    27     1    23    1
    28    23    24    1
    29    24    25    1
