@<TRIPOS>MOLECULE
/tmp/ewbell/vina_2ff1_2ff1_lig/vina/vina4.pdbqt
 27 29 0 0 0
SMALL
GASTEIGER

@<TRIPOS>ATOM
      1  C2        25.1310   27.6040   40.6390 C.3   641  INH641      0.2410
      2  N1        24.0980   28.4870   40.0170 N.4   641  INH641     -0.0550
      3  H5        23.8430   29.2040   40.6800 H     641  INH641      0.2780
      4  H6        24.4920   28.9150   39.1920 H     641  INH641      0.2780
      5  C3        24.2930   26.4480   41.2420 C.3   641  INH641      0.1820
      6  C4        22.9570   26.3820   40.3920 C.3   641  INH641      0.1840
      7  C5        22.8860   27.7470   39.6310 C.3   641  INH641      0.2540
      8  C6        22.8580   27.6220   37.9920 C.ar  641  INH641      0.0190
      9  C11       21.6970   27.4890   37.1640 C.ar  641  INH641      0.0710
     10  C8        22.1530   27.4090   35.8800 C.ar  641  INH641      0.1280
     11  N4        20.3790   27.4450   37.5470 N.pl3 641  INH641     -0.3710
     12  N2        23.5510   27.4860   35.8100 N.ar  641  INH641     -0.3590
     13  C9        21.2210   27.2530   34.7310 C.2   641  INH641      0.2710
     14  C7        23.9420   27.6230   37.1760 C.ar  641  INH641      0.1000
     15  H13       24.1400   27.4530   34.9900 H     641  INH641      0.1650
     16  N3        19.8730   27.2180   35.2120 N.am  641  INH641     -0.3400
     17  O4        21.5050   27.1650   33.5240 O.2   641  INH641     -0.2660
     18  H16       19.1510   27.1180   34.5270 H     641  INH641      0.1640
     19  C10       19.4600   27.3120   36.5820 C.3   641  INH641      0.2470
     20  H14       20.1080   27.5110   38.5380 H     641  INH641      0.1610
     21  O3        21.7490   26.1180   41.1750 O.3   641  INH641     -0.3900
     22  H10       21.2630   25.3770   40.8060 H     641  INH641      0.2100
     23  C1        26.1900   27.2700   39.5080 C.3   641  INH641      0.1990
     24  O1        27.2870   26.4070   39.8800 O.3   641  INH641     -0.3990
     25  H1        26.9370   25.7220   40.4540 H     641  INH641      0.2090
     26  O2        24.0090   26.6610   42.6580 O.3   641  INH641     -0.3910
     27  H8        24.7170   26.2520   43.1610 H     641  INH641      0.2100
@<TRIPOS>BOND
     1    17    13    2
     2    18    16    1
     3    13    16   am
     4    13    10    1
     5    15    12    1
     6    16    19    1
     7    12    10   ar
     8    12    14   ar
     9    10     9   ar
    10    19    11    1
    11     9    11    1
    12     9     8   ar
    13    14     8   ar
    14    11    20    1
    15     8     7    1
    16     4     2    1
    17    23    24    1
    18    23     1    1
    19     7     2    1
    20     7     6    1
    21    24    25    1
    22     2     1    1
    23     2     3    1
    24     6    21    1
    25     6     5    1
    26     1     5    1
    27    22    21    1
    28     5    26    1
    29    26    27    1
