@<TRIPOS>MOLECULE
/tmp/ewbell/vina_2ff1_2ff1_lig/vina/vina3.pdbqt
 27 29 0 0 0
SMALL
GASTEIGER

@<TRIPOS>ATOM
      1  C2        25.8820   29.1850   39.6880 C.3   641  INH641      0.2410
      2  N1        24.4200   29.1180   39.9980 N.4   641  INH641     -0.0550
      3  H5        24.2690   29.4860   40.9260 H     641  INH641      0.2780
      4  H6        23.9210   29.6820   39.3260 H     641  INH641      0.2780
      5  C3        26.3950   27.7800   40.0970 C.3   641  INH641      0.1820
      6  C4        25.1490   26.8070   39.9870 C.3   641  INH641      0.1840
      7  C5        23.8970   27.7450   39.9420 C.3   641  INH641      0.2540
      8  C6        22.9750   27.5990   38.5890 C.ar  641  INH641      0.0190
      9  C11       21.5520   27.4410   38.5360 C.ar  641  INH641      0.0710
     10  C8        21.2290   27.3500   37.2140 C.ar  641  INH641      0.1280
     11  N4        20.6630   27.3860   39.5810 N.pl3 641  INH641     -0.3710
     12  N2        22.3570   27.4430   36.3860 N.ar  641  INH641     -0.3590
     13  C9        19.8220   27.1690   36.7670 C.2   641  INH641      0.2710
     14  C7        23.4320   27.6020   37.3110 C.ar  641  INH641      0.1000
     15  H13       22.3990   27.4070   35.3770 H     641  INH641      0.1650
     16  N3        18.9600   27.1230   37.9100 N.am  641  INH641     -0.3400
     17  O4        19.3970   27.0690   35.6030 O.2   641  INH641     -0.2660
     18  H16       17.9820   27.0070   37.7350 H     641  INH641      0.1640
     19  C10       19.3670   27.2300   39.2800 C.3   641  INH641      0.2470
     20  H14       20.9800   27.4620   40.5570 H     641  INH641      0.1610
     21  O3        25.0590   25.8100   41.0550 O.3   641  INH641     -0.3900
     22  H10       24.2500   25.9260   41.5580 H     641  INH641      0.2100
     23  C1        26.0090   29.6340   38.1740 C.3   641  INH641      0.1990
     24  O1        27.1730   30.4170   37.8250 O.3   641  INH641     -0.3990
     25  H1        27.4370   30.1650   36.9370 H     641  INH641      0.2090
     26  O2        26.9540   27.7740   41.4450 O.3   641  INH641     -0.3910
     27  H8        26.2250   27.8780   42.0630 H     641  INH641      0.2100
@<TRIPOS>BOND
     1    15    12    1
     2    17    13    2
     3    12    10   ar
     4    12    14   ar
     5    13    10    1
     6    13    16   am
     7    25    24    1
     8    10     9   ar
     9    14     8   ar
    10    18    16    1
    11    24    23    1
    12    16    19    1
    13    23     1    1
    14     9     8   ar
    15     9    11    1
    16     8     7    1
    17    19    11    1
    18     4     2    1
    19    11    20    1
    20     1     2    1
    21     1     5    1
    22     7     6    1
    23     7     2    1
    24     6     5    1
    25     6    21    1
    26     2     3    1
    27     5    26    1
    28    21    22    1
    29    26    27    1
