@<TRIPOS>MOLECULE
/tmp/ewbell/vina_2ff1_2ff1_lig/vina/vina1.pdbqt
 27 29 0 0 0
SMALL
GASTEIGER

@<TRIPOS>ATOM
      1  C2        24.4900   27.9750   42.0080 C.3   641  INH641      0.2410
      2  N1        24.1520   26.7510   41.2190 N.4   641  INH641     -0.0550
      3  H5        24.7210   25.9850   41.5500 H     641  INH641      0.2780
      4  H6        23.1770   26.5320   41.3620 H     641  INH641      0.2780
      5  C3        25.5630   28.6740   41.1340 C.3   641  INH641      0.1820
      6  C4        25.3020   28.1920   39.6470 C.3   641  INH641      0.1840
      7  C5        24.3900   26.9280   39.7790 C.3   641  INH641      0.2540
      8  C6        22.9320   27.0480   39.0270 C.ar  641  INH641      0.0190
      9  C11       22.7020   27.1350   37.6150 C.ar  641  INH641      0.0710
     10  C8        21.3500   27.2300   37.4560 C.ar  641  INH641      0.1280
     11  N4        23.6270   27.1270   36.6010 N.pl3 641  INH641     -0.3710
     12  N2        20.6700   27.2070   38.6820 N.ar  641  INH641     -0.3590
     13  C9        20.7320   27.3460   36.1080 C.2   641  INH641      0.2710
     14  C7        21.7220   27.0880   39.6400 C.ar  641  INH641      0.1000
     15  H13       19.6760   27.2620   38.8480 H     641  INH641      0.1650
     16  N3        21.7570   27.3290   35.1090 N.am  641  INH641     -0.3400
     17  O4        19.5240   27.4430   35.8280 O.2   641  INH641     -0.2660
     18  H16       21.4610   27.3990   34.1570 H     641  INH641      0.1640
     19  C10       23.1670   27.2220   35.3460 C.3   641  INH641      0.2470
     20  H14       24.6350   27.0520   36.7970 H     641  INH641      0.1610
     21  O3        26.5140   27.9250   38.8720 O.3   641  INH641     -0.3900
     22  H10       27.2790   28.3230   39.2940 H     641  INH641      0.2100
     23  C1        23.1260   28.7280   42.2920 C.3   641  INH641      0.1990
     24  O1        22.4170   28.3560   43.4950 O.3   641  INH641     -0.3990
     25  H1        21.5540   28.7760   43.4660 H     641  INH641      0.2090
     26  O2        26.9180   28.3470   41.5660 O.3   641  INH641     -0.3910
     27  H8        27.2910   29.1330   41.9740 H     641  INH641      0.2100
@<TRIPOS>BOND
     1    18    16    1
     2    16    19    1
     3    16    13   am
     4    19    11    1
     5    17    13    2
     6    13    10    1
     7    11    20    1
     8    11     9    1
     9    10     9   ar
    10    10    12   ar
    11     9     8   ar
    12    12    15    1
    13    12    14   ar
    14    21    22    1
    15    21     6    1
    16     8    14   ar
    17     8     7    1
    18     6     7    1
    19     6     5    1
    20     7     2    1
    21     5    26    1
    22     5     1    1
    23     2     4    1
    24     2     3    1
    25     2     1    1
    26    26    27    1
    27     1    23    1
    28    23    24    1
    29    25    24    1
