@<TRIPOS>MOLECULE
/tmp/ewbell/vina_2ff1_2ff1_lig/vina/vina2.pdbqt
 27 29 0 0 0
SMALL
GASTEIGER

@<TRIPOS>ATOM
      1  C2        24.5830   27.9000   41.6190 C.3   641  INH641      0.2410
      2  N1        24.4090   26.7980   40.6230 N.4   641  INH641     -0.0550
      3  H5        24.9540   26.0020   40.9220 H     641  INH641      0.2780
      4  H6        23.4330   26.5440   40.5880 H     641  INH641      0.2780
      5  C3        25.7420   28.7380   41.0210 C.3   641  INH641      0.1820
      6  C4        25.7160   28.4740   39.4580 C.3   641  INH641      0.1840
      7  C5        24.8440   27.1880   39.2730 C.3   641  INH641      0.2540
      8  C6        23.5060   27.3920   38.3400 C.ar  641  INH641      0.0190
      9  C11       22.1460   27.1670   38.7330 C.ar  641  INH641      0.0710
     10  C8        21.3830   27.4520   37.6380 C.ar  641  INH641      0.1280
     11  N4        21.6710   26.7490   39.9510 N.pl3 641  INH641     -0.3710
     12  N2        22.1590   27.8580   36.5430 N.ar  641  INH641     -0.3590
     13  C9        19.9010   27.3230   37.6680 C.2   641  INH641      0.2710
     14  C7        23.4930   27.8030   37.0470 C.ar  641  INH641      0.1000
     15  H13       21.8490   28.1250   35.6200 H     641  INH641      0.1650
     16  N3        19.4860   26.8870   38.9660 N.am  641  INH641     -0.3400
     17  O4        19.0970   27.5460   36.7460 O.2   641  INH641     -0.2660
     18  H16       18.5040   26.7660   39.1100 H     641  INH641      0.1640
     19  C10       20.3450   26.6070   40.0800 C.3   641  INH641      0.2470
     20  H14       22.3090   26.5520   40.7340 H     641  INH641      0.1610
     21  O3        27.0370   28.3440   38.8410 O.3   641  INH641     -0.3900
     22  H10       27.6440   28.9920   39.2060 H     641  INH641      0.2100
     23  C1        23.1640   28.5790   41.8030 C.3   641  INH641      0.1990
     24  O1        22.3450   28.0890   42.8880 O.3   641  INH641     -0.3990
     25  H1        21.5230   28.5850   42.8790 H     641  INH641      0.2090
     26  O2        27.0330   28.3750   41.5980 O.3   641  INH641     -0.3910
     27  H8        27.3820   27.6380   41.0890 H     641  INH641      0.2100
@<TRIPOS>BOND
     1    15    12    1
     2    12    14   ar
     3    12    10   ar
     4    17    13    2
     5    14     8   ar
     6    10    13    1
     7    10     9   ar
     8    13    16   am
     9     8     9   ar
    10     8     7    1
    11     9    11    1
    12    21    22    1
    13    21     6    1
    14    16    18    1
    15    16    19    1
    16     7     6    1
    17     7     2    1
    18     6     5    1
    19    11    19    1
    20    11    20    1
    21     4     2    1
    22     2     3    1
    23     2     1    1
    24     5    26    1
    25     5     1    1
    26    27    26    1
    27     1    23    1
    28    23    24    1
    29    25    24    1
