@<TRIPOS>MOLECULE
./ligand/2aac_lig.pdb
 23 23 0 0 0
SMALL
GASTEIGER

@<TRIPOS>ATOM
      1  C1        39.7740    2.5030   42.5190 C.3   331  INH331      0.1853
      2  C2        39.6580    2.0070   41.0830 C.3   331  INH331      0.1339
      3  C3        38.4640    2.6540   40.3860 C.3   331  INH331      0.1140
      4  C4        37.1990    2.5190   41.2150 C.3   331  INH331      0.1095
      5  C5        37.4570    3.0510   42.6210 C.3   331  INH331      0.0873
      6  C6        36.2440    2.9120   43.5180 C.3   331  INH331     -0.0361
      7  O1        40.7570    1.7910   43.1640 O.3   331  INH331     -0.3649
      8  O2        40.8410    2.3290   40.3790 O.3   331  INH331     -0.3841
      9  O3        38.2750    2.0400   39.1200 O.3   331  INH331     -0.3864
     10  O4        36.8240    1.1460   41.2920 O.3   331  INH331     -0.3866
     11  O5        38.5500    2.3040   43.2170 O.3   331  INH331     -0.3433
     12  H1        40.0280    3.5730   42.5170 H     331  INH331      0.0935
     13  H2        39.5230    0.9150   41.0890 H     331  INH331      0.0671
     14  H3        38.6760    3.7230   40.2390 H     331  INH331      0.0648
     15  H4        36.3890    3.0960   40.7460 H     331  INH331      0.0646
     16  H5        37.7310    4.1140   42.5530 H     331  INH331      0.0621
     17  H6        36.4790    3.3080   44.5170 H     331  INH331      0.0255
     18  H7        35.9680    1.8500   43.6000 H     331  INH331      0.0255
     19  H8        35.4040    3.4770   43.0880 H     331  INH331      0.0255
     20  H9        41.5840    1.9110   42.7120 H     331  INH331      0.2126
     21  H10       41.5860    1.9270   40.8110 H     331  INH331      0.2101
     22  H11       39.0680    2.1260   38.6040 H     331  INH331      0.2100
     23  H12       36.6630    0.8120   40.4170 H     331  INH331      0.2100
@<TRIPOS>BOND
     1     1    12    1
     2     1    11    1
     3     1     7    1
     4     1     2    1
     5     2    13    1
     6     2     8    1
     7     2     3    1
     8     3    14    1
     9     3     9    1
    10     3     4    1
    11     4    15    1
    12     4    10    1
    13     4     5    1
    14     5    16    1
    15     5    11    1
    16     5     6    1
    17     6    19    1
    18     6    18    1
    19     6    17    1
    20     7    20    1
    21     8    21    1
    22     9    22    1
    23    10    23    1
