@<TRIPOS>MOLECULE
/tmp/ewbell/vina_2aac_2aac_lig/vina/vina5.pdbqt
 15 15 0 0 0
SMALL
GASTEIGER

@<TRIPOS>ATOM
      1  C1        37.7850    2.3520   40.2790 C.3   331  INH331      0.2880
      2  C2        39.2660    2.5260   40.5890 C.3   331  INH331      0.2040
      3  C3        39.5980    1.9510   41.9640 C.3   331  INH331      0.1820
      4  C4        38.6540    2.4810   43.0280 C.3   331  INH331      0.1780
      5  C5        37.2130    2.2420   42.5890 C.3   331  INH331      0.1520
      6  C6        36.2120    2.7820   43.5900 C.3   331  INH331      0.0420
      7  O5        36.9880    2.9070   41.3190 O.3   331  INH331     -0.3510
      8  O1        37.4880    3.0130   39.1110 O.3   331  INH331     -0.3690
      9  H9        38.2690    3.0710   38.5720 H     331  INH331      0.2120
     10  O2        40.0330    1.8580   39.6060 O.3   331  INH331     -0.3880
     11  H10       40.0420    0.9260   39.7910 H     331  INH331      0.2100
     12  O3        40.9360    2.2890   42.2990 O.3   331  INH331     -0.3900
     13  H11       40.9400    2.8290   43.0800 H     331  INH331      0.2100
     14  O4        38.8680    3.8790   43.2010 O.3   331  INH331     -0.3900
     15  H12       38.5680    4.1410   44.0640 H     331  INH331      0.2100
@<TRIPOS>BOND
     1     9     8    1
     2     8     1    1
     3    10    11    1
     4    10     2    1
     5     1     2    1
     6     1     7    1
     7     2     3    1
     8     7     5    1
     9     3    12    1
    10     3     4    1
    11    12    13    1
    12     5     4    1
    13     5     6    1
    14     4    14    1
    15    14    15    1
