@<TRIPOS>MOLECULE
/tmp/ewbell/vina_2aac_2aac_lig/vina/vina3.pdbqt
 15 15 0 0 0
SMALL
GASTEIGER

@<TRIPOS>ATOM
      1  C1        36.9850    2.7810   42.6490 C.3   331  INH331      0.2880
      2  C2        38.4610    2.4560   42.4560 C.3   331  INH331      0.2040
      3  C3        38.9490    2.9540   41.0980 C.3   331  INH331      0.1820
      4  C4        38.0380    2.4860   39.9770 C.3   331  INH331      0.1780
      5  C5        36.5990    2.8760   40.2990 C.3   331  INH331      0.1520
      6  C6        35.6260    2.4050   39.2370 C.3   331  INH331      0.0420
      7  O5        36.2160    2.2750   41.5640 O.3   331  INH331     -0.3510
      8  O1        36.5400    2.1870   43.8050 O.3   331  INH331     -0.3690
      9  H9        36.4630    2.8430   44.4890 H     331  INH331      0.2120
     10  O2        39.2150    3.0760   43.4790 O.3   331  INH331     -0.3880
     11  H10       38.6400    3.6070   44.0190 H     331  INH331      0.2100
     12  O3        40.2680    2.4790   40.8740 O.3   331  INH331     -0.3900
     13  H11       40.4190    1.7030   41.3990 H     331  INH331      0.2100
     14  O4        38.1250    1.0690   39.8530 O.3   331  INH331     -0.3900
     15  H12       37.7880    0.6600   40.6410 H     331  INH331      0.2100
@<TRIPOS>BOND
     1     6     5    1
     2    14     4    1
     3    14    15    1
     4     4     5    1
     5     4     3    1
     6     5     7    1
     7    12     3    1
     8    12    13    1
     9     3     2    1
    10     7     1    1
    11     2     1    1
    12     2    10    1
    13     1     8    1
    14    10    11    1
    15     8     9    1
