@<TRIPOS>MOLECULE
/tmp/ewbell/vina_2aac_2aac_lig/vina/vina4.pdbqt
 15 15 0 0 0
SMALL
GASTEIGER

@<TRIPOS>ATOM
      1  C1        38.8140    2.5670   40.1760 C.3   331  INH331      0.2880
      2  C2        38.2230    2.3250   41.5590 C.3   331  INH331      0.2040
      3  C3        39.2370    2.6740   42.6460 C.3   331  INH331      0.1820
      4  C4        40.5740    1.9990   42.3920 C.3   331  INH331      0.1780
      5  C5        41.0450    2.3250   40.9790 C.3   331  INH331      0.1520
      6  C6        42.3590    1.6510   40.6430 C.3   331  INH331      0.0420
      7  O5        40.0450    1.8690   40.0290 O.3   331  INH331     -0.3510
      8  O1        37.9400    2.1010   39.2240 O.3   331  INH331     -0.3690
      9  H9        38.1140    2.5300   38.3950 H     331  INH331      0.2120
     10  O2        37.0690    3.1260   41.7230 O.3   331  INH331     -0.3880
     11  H10       37.2900    3.8990   42.2290 H     331  INH331      0.2100
     12  O3        38.7270    2.2680   43.9070 O.3   331  INH331     -0.3900
     13  H11       38.8780    2.9540   44.5460 H     331  INH331      0.2100
     14  O4        40.4280    0.5870   42.5270 O.3   331  INH331     -0.3900
     15  H12       41.1410    0.1510   42.0760 H     331  INH331      0.2100
@<TRIPOS>BOND
     1     9     8    1
     2     8     1    1
     3     7     1    1
     4     7     5    1
     5     1     2    1
     6     6     5    1
     7     5     4    1
     8     2    10    1
     9     2     3    1
    10    10    11    1
    11    15    14    1
    12     4    14    1
    13     4     3    1
    14     3    12    1
    15    12    13    1
