@<TRIPOS>MOLECULE
/tmp/ewbell/vina_2aac_2aac_lig/vina/vina1.pdbqt
 15 15 0 0 0
SMALL
GASTEIGER

@<TRIPOS>ATOM
      1  C1        39.3280    2.2220   42.0280 C.3   331  INH331      0.2880
      2  C2        38.8950    1.8890   40.6060 C.3   331  INH331      0.2040
      3  C3        37.6820    2.7240   40.2040 C.3   331  INH331      0.1820
      4  C4        36.5810    2.6380   41.2460 C.3   331  INH331      0.1780
      5  C5        37.1520    2.9960   42.6150 C.3   331  INH331      0.1520
      6  C6        36.1130    2.8940   43.7130 C.3   331  INH331      0.0420
      7  O5        38.2360    2.0820   42.9290 O.3   331  INH331     -0.3510
      8  O1        40.3180    1.3500   42.4140 O.3   331  INH331     -0.3690
      9  H9        39.9660    0.7280   43.0400 H     331  INH331      0.2120
     10  O2        39.9610    2.1550   39.7160 O.3   331  INH331     -0.3880
     11  H10       40.7340    1.6770   39.9960 H     331  INH331      0.2100
     12  O3        37.1940    2.2640   38.9530 O.3   331  INH331     -0.3900
     13  H11       37.1210    1.3170   38.9690 H     331  INH331      0.2100
     14  O4        36.0620    1.3110   41.2840 O.3   331  INH331     -0.3900
     15  H12       35.4710    1.1810   40.5510 H     331  INH331      0.2100
@<TRIPOS>BOND
     1    12    13    1
     2    12     3    1
     3    10    11    1
     4    10     2    1
     5     3     2    1
     6     3     4    1
     7    15    14    1
     8     2     1    1
     9     4    14    1
    10     4     5    1
    11     1     8    1
    12     1     7    1
    13     8     9    1
    14     5     7    1
    15     5     6    1
