@<TRIPOS>MOLECULE
/tmp/ewbell/vina_2aac_2aac_lig/vina/vina2.pdbqt
 15 15 0 0 0
SMALL
GASTEIGER

@<TRIPOS>ATOM
      1  C1        37.5130    2.4350   42.5860 C.3   331  INH331      0.2880
      2  C2        36.9070    2.4560   41.1880 C.3   331  INH331      0.2040
      3  C3        37.7570    1.6350   40.2220 C.3   331  INH331      0.1820
      4  C4        39.2200    2.0360   40.2930 C.3   331  INH331      0.1780
      5  C5        39.6930    1.9700   41.7420 C.3   331  INH331      0.1520
      6  C6        41.1390    2.3970   41.8930 C.3   331  INH331      0.0420
      7  O5        38.8720    2.8560   42.5480 O.3   331  INH331     -0.3510
      8  O1        36.8170    3.3040   43.3920 O.3   331  INH331     -0.3690
      9  H9        36.8820    3.0190   44.2960 H     331  INH331      0.2120
     10  O2        35.6010    1.9170   41.2360 O.3   331  INH331     -0.3880
     11  H10       35.6250    1.0650   41.6560 H     331  INH331      0.2100
     12  O3        37.2730    1.8220   38.9010 O.3   331  INH331     -0.3900
     13  H11       36.9550    2.7120   38.8030 H     331  INH331      0.2100
     14  O4        39.3730    3.3680   39.8070 O.3   331  INH331     -0.3900
     15  H12       38.8510    3.4800   39.0210 H     331  INH331      0.2100
@<TRIPOS>BOND
     1    13    12    1
     2    12     3    1
     3    15    14    1
     4    14     4    1
     5     3     4    1
     6     3     2    1
     7     4     5    1
     8     2    10    1
     9     2     1    1
    10    10    11    1
    11     5     6    1
    12     5     7    1
    13     7     1    1
    14     1     8    1
    15     8     9    1
