@<TRIPOS>MOLECULE
./ligand/1ua4_lig.pdb
 35 37 0 0 0
SMALL
GASTEIGER

@<TRIPOS>ATOM
      1  P1        19.3020   18.8000    8.2670 P.3   457  INH457      0.5320
      2  O1        20.5460   19.0390    8.9920 O.3   457  INH457     -0.1145
      3  O2        19.2500   19.5300    6.9750 O.3   457  INH457     -0.1145
      4  O3        18.0840   19.0870    9.1180 O.2   457  INH457     -0.2224
      5  O4        19.3570   17.1880    7.9180 O.3   457  INH457     -0.2809
      6  C1        18.2480   16.5440    7.2100 C.3   457  INH457      0.0880
      7  C2        18.2510   15.1230    7.8030 C.3   457  INH457      0.1134
      8  O5        17.1430   14.2550    7.3520 O.3   457  INH457     -0.3456
      9  C3        19.6810   14.2410    7.5470 C.3   457  INH457      0.1135
     10  O6        20.6300   14.5090    8.6710 O.3   457  INH457     -0.3864
     11  C4        19.0940   12.7580    7.4710 C.3   457  INH457      0.1285
     12  O7        19.1060   12.1380    8.7400 O.3   457  INH457     -0.3847
     13  C5        17.5580   12.9210    7.0420 C.3   457  INH457      0.1665
     14  N1        17.3040   12.5400    5.6290 N.ar  457  INH457     -0.2877
     15  C6        17.6880   13.1670    4.4320 C.ar  457  INH457      0.0999
     16  N2        17.3030   12.5620    3.2790 N.ar  457  INH457     -0.2346
     17  C7        16.6210   11.4610    3.8160 C.ar  457  INH457      0.1287
     18  C8        15.9440   10.3760    3.1840 C.3   457  INH457      0.2004
     19  N3        15.9110   10.3180    1.8050 N.3   457  INH457     -0.2985
     20  N4        15.3610    9.4360    4.0430 N.2   457  INH457     -0.2420
     21  C9        15.4160    9.5250    5.3900 C.2   457  INH457      0.1049
     22  N5        16.0350   10.5120    6.0700 N.pl3 457  INH457     -0.1840
     23  C10       16.6080   11.4370    5.2350 C.ar  457  INH457      0.1528
     24  H1        18.4290   16.5220    6.1250 H     457  INH457      0.0592
     25  H2        17.2960   17.0570    7.4130 H     457  INH457      0.0592
     26  H3        18.1400   15.2560    8.8890 H     457  INH457      0.0647
     27  H4        20.1670   14.5120    6.5980 H     457  INH457      0.0647
     28  H5        20.9220   15.4120    8.6310 H     457  INH457      0.2100
     29  H6        19.6550   12.1540    6.7430 H     457  INH457      0.0665
     30  H7        20.0040   12.0240    9.0280 H     457  INH457      0.2101
     31  H8        16.9640   12.2360    7.6650 H     457  INH457      0.0866
     32  H9        18.2650   14.0910    4.4290 H     457  INH457      0.1030
     33  H10       15.4260    9.5410    1.3340 H     457  INH457      0.1209
     34  H11       16.3710   11.0520    1.2470 H     457  INH457      0.1209
     35  H12       14.9270    8.7470    5.9660 H     457  INH457      0.1015
@<TRIPOS>BOND
     1     1     5    1
     2     1     4    2
     3     1     3    1
     4     1     2    1
     5     5     6    1
     6     6    25    1
     7     6    24    1
     8     6     7    1
     9     7    26    1
    10     7     9    1
    11     7     8    1
    12     8    13    1
    13     9    11    1
    14     9    27    1
    15     9    10    1
    16    10    28    1
    17    11    13    1
    18    11    29    1
    19    11    12    1
    20    12    30    1
    21    13    31    1
    22    13    14    1
    23    14    23   ar
    24    14    15   ar
    25    15    32    1
    26    15    16   ar
    27    16    17   ar
    28    17    23   ar
    29    17    18    1
    30    18    20    1
    31    18    19    1
    32    19    34    1
    33    19    33    1
    34    20    21    2
    35    21    35    1
    36    21    22    1
    37    22    23    1
