@<TRIPOS>MOLECULE
/tmp/ewbell/vina_1ua4_1ua4_lig/vina/vina1.pdbqt
 32 34 0 0 0
SMALL
GASTEIGER

@<TRIPOS>ATOM
      1  C2        19.7770   14.9120    6.4480 C.3   457  INH457      0.1800
      2  O5        19.7230   13.4680    6.1390 O.3   457  INH457     -0.3530
      3  C3        18.1650   15.4260    6.6060 C.3   457  INH457      0.1820
      4  C4        17.4130   14.2570    5.8210 C.3   457  INH457      0.1980
      5  C5        18.3990   12.9940    5.8740 C.3   457  INH457      0.2620
      6  N1        17.9490   11.9440    6.8230 N.pl3 457  INH457     -0.2970
      7  C10       16.9250   11.0750    6.5920 C.2   457  INH457      0.1380
      8  C7        16.8380   10.2650    7.7540 C.2   457  INH457      0.1070
      9  N5        16.1530   11.0310    5.4590 N.pl3 457  INH457     -0.3370
     10  N2        17.7920   10.5830    8.7320 N.pl3 457  INH457     -0.3490
     11  C8        15.8110    9.2760    7.7300 C.3   457  INH457      0.6860
     12  C6        18.4250   11.6040    8.1000 C.3   457  INH457      0.1870
     13  H2        17.9600   10.1680    9.6490 H     457  INH457      0.1660
     14  N4        15.0280    9.2370    6.5700 N.3   457  INH457     -0.3520
     15  C9        15.2110   10.0680    5.5200 C.3   457  INH457      0.1790
     16  H4        14.2800    8.5440    6.5140 H     457  INH457      0.1620
     17  H         16.2740   11.6340    4.6890 H     457  INH457      0.1680
     18  N3        15.6530    8.4460    8.8220 N.3   457  INH457     -0.0950
     19  H11       16.4800    8.0990    9.3290 H     457  INH457      0.2600
     20  H10       14.7080    8.1740    9.1290 H     457  INH457      0.2600
     21  O7        17.2360   14.5880    4.4590 O.3   457  INH457     -0.3880
     22  H7        16.3080   14.6180    4.2590 H     457  INH457      0.2100
     23  C1        20.7000   15.2930    7.6210 C.3   457  INH457      0.2150
     24  O4        21.7240   16.1120    6.9680 O.3   457  INH457     -0.2940
     25  P1        21.4300   17.6990    6.6210 P.3   457  INH457      0.3900
     26  O3        20.4500   18.2580    7.6290 O.2   457  INH457     -0.6320
     27  O2        20.8860   17.7550    5.2410 O.3   457  INH457     -0.3070
     28  H         19.9690   18.0700    5.2680 H     457  INH457      0.2220
     29  O1        22.7440   18.3250    6.7280 O.3   457  INH457     -0.3070
     30  H         22.6730   19.2650    6.5020 H     457  INH457      0.2220
     31  O6        18.0280   16.7960    6.0230 O.3   457  INH457     -0.3900
     32  H5        17.1100   17.0360    5.9890 H     457  INH457      0.2100
@<TRIPOS>BOND
     1    22    21    1
     2    21     4    1
     3    17     9    1
     4    27    28    1
     5    27    25    1
     6     9    15    1
     7     9     7    1
     8    15    14    1
     9     4     5    1
    10     4     3    1
    11     5     2    1
    12     5     6    1
    13    32    31    1
    14    31     3    1
    15     2     1    1
    16     1     3    1
    17     1    23    1
    18    30    29    1
    19    16    14    1
    20    14    11    1
    21     7     6    1
    22     7     8    2
    23    25    29    1
    24    25    24    1
    25    25    26    2
    26     6    12    1
    27    24    23    1
    28    11     8    1
    29    11    18    1
    30     8    10    1
    31    12    10    1
    32    10    13    1
    33    18    20    1
    34    18    19    1
