@<TRIPOS>MOLECULE
/tmp/ewbell/vina_1ua4_1ua4_lig/vina/vina4.pdbqt
 32 34 0 0 0
SMALL
GASTEIGER

@<TRIPOS>ATOM
      1  C2        19.8860   16.8590    6.4110 C.3   457  INH457      0.1800
      2  O5        20.0720   15.3930    6.3970 O.3   457  INH457     -0.3530
      3  C3        18.6710   17.1950    5.2710 C.3   457  INH457      0.1820
      4  C4        18.7310   15.8660    4.3880 C.3   457  INH457      0.1980
      5  C5        19.3630   14.7410    5.3390 C.3   457  INH457      0.2620
      6  N1        18.3610   13.7570    5.8230 N.pl3 457  INH457     -0.2970
      7  C10       17.5340   13.0320    5.0190 C.2   457  INH457      0.1380
      8  C7        16.7470   12.2380    5.8930 C.2   457  INH457      0.1070
      9  N5        17.4940   13.0920    3.6490 N.pl3 457  INH457     -0.3370
     10  N2        17.0520   12.4240    7.2490 N.pl3 457  INH457     -0.3490
     11  C8        15.7930   11.3920    5.2530 C.3   457  INH457      0.6860
     12  C6        18.0330   13.3550    7.1280 C.3   457  INH457      0.1870
     13  H2        16.6540   11.9890    8.0810 H     457  INH457      0.1660
     14  N4        15.7590   11.4590    3.8540 N.3   457  INH457     -0.3520
     15  C9        16.5680   12.2610    3.1280 C.3   457  INH457      0.1790
     16  H4        15.0880   10.8710    3.3580 H     457  INH457      0.1620
     17  H         18.0760   13.6750    3.1080 H     457  INH457      0.1680
     18  N3        14.9820   10.5880    6.0280 N.3   457  INH457     -0.0950
     19  H11       14.2450   11.0100    6.6130 H     457  INH457      0.2600
     20  H10       15.1140    9.5670    6.0240 H     457  INH457      0.2600
     21  O7        19.6070   16.0200    3.2910 O.3   457  INH457     -0.3880
     22  H7        20.3790   16.5000    3.5670 H     457  INH457      0.2100
     23  C1        19.6580   17.4730    7.8050 C.3   457  INH457      0.2150
     24  O4        20.1870   18.8300    7.6460 O.3   457  INH457     -0.2940
     25  P1        19.2220   20.1410    7.9170 P.3   457  INH457      0.3900
     26  O3        18.1700   20.2210    6.8320 O.2   457  INH457     -0.6320
     27  O2        20.0970   21.3400    7.9200 O.3   457  INH457     -0.3070
     28  H         19.9130   21.8720    8.7100 H     457  INH457      0.2220
     29  O1        18.6380   19.8740    9.2280 O.3   457  INH457     -0.3070
     30  H         18.3310   18.9550    9.2640 H     457  INH457      0.2220
     31  O6        19.0060   18.4660    4.5580 O.3   457  INH457     -0.3900
     32  H5        19.0460   19.1790    5.1840 H     457  INH457      0.2100
@<TRIPOS>BOND
     1    17     9    1
     2    15     9    1
     3    15    14    1
     4    21    22    1
     5    21     4    1
     6    16    14    1
     7     9     7    1
     8    14    11    1
     9     4     3    1
    10     4     5    1
    11    31    32    1
    12    31     3    1
    13     7     6    1
    14     7     8    2
    15    11     8    1
    16    11    18    1
    17     3     1    1
    18     5     6    1
    19     5     2    1
    20     6    12    1
    21     8    10    1
    22    20    18    1
    23    18    19    1
    24     2     1    1
    25     1    23    1
    26    26    25    2
    27    12    10    1
    28    10    13    1
    29    24    23    1
    30    24    25    1
    31    25    27    1
    32    25    29    1
    33    27    28    1
    34    29    30    1
