@<TRIPOS>MOLECULE
/tmp/ewbell/vina_1ua4_1ua4_lig/vina/vina2.pdbqt
 32 34 0 0 0
SMALL
GASTEIGER

@<TRIPOS>ATOM
      1  C2        19.3930   16.1070    6.5050 C.3   457  INH457      0.1800
      2  O5        19.6250   14.6600    6.3080 O.3   457  INH457     -0.3530
      3  C3        18.4320   16.6160    5.1990 C.3   457  INH457      0.1820
      4  C4        18.7160   15.4400    4.1570 C.3   457  INH457      0.1980
      5  C5        19.1720   14.1810    5.0380 C.3   457  INH457      0.2620
      6  N1        18.1230   13.1340    5.1460 N.pl3 457  INH457     -0.2970
      7  C10       17.9390   12.3270    6.2280 C.2   457  INH457      0.1380
      8  C7        16.8480   11.4820    5.8950 C.2   457  INH457      0.1070
      9  N5        18.6820   12.3510    7.3800 N.pl3 457  INH457     -0.3370
     10  N2        16.3130   11.7290    4.6230 N.pl3 457  INH457     -0.3490
     11  C8        16.4830   10.5380    6.9000 C.3   457  INH457      0.6860
     12  C6        17.1330   12.7370    4.2310 C.3   457  INH457      0.1870
     13  H2        15.5360   11.2830    4.1360 H     457  INH457      0.1660
     14  N4        17.2470   10.5690    8.0740 N.3   457  INH457     -0.3520
     15  C9        18.2690   11.4300    8.2740 C.3   457  INH457      0.1790
     16  H4        17.0190    9.9070    8.8170 H     457  INH457      0.1620
     17  H         19.4320   12.9710    7.5360 H     457  INH457      0.1680
     18  N3        15.4350    9.6720    6.6590 N.3   457  INH457     -0.0950
     19  H11       14.4630   10.0040    6.7430 H     457  INH457      0.2600
     20  H10       15.6240    8.6950    6.3960 H     457  INH457      0.2600
     21  O7        19.7960   15.7610    3.3050 O.3   457  INH457     -0.3880
     22  H7        20.4410   15.0650    3.3350 H     457  INH457      0.2100
     23  C1        18.8600   16.4980    7.8960 C.3   457  INH457      0.2150
     24  O4        19.7950   17.5460    8.3120 O.3   457  INH457     -0.2940
     25  P1        19.3260   19.1280    8.3240 P.3   457  INH457      0.3900
     26  O3        19.7290   19.7610    9.6380 O.2   457  INH457     -0.6320
     27  O2        17.8540   19.1540    8.1340 O.3   457  INH457     -0.3070
     28  H         17.4190   18.8410    8.9420 H     457  INH457      0.2220
     29  O1        20.0440   19.7090    7.1930 O.3   457  INH457     -0.3070
     30  H         20.9100   20.0280    7.4900 H     457  INH457      0.2220
     31  O6        18.8670   17.9820    4.7740 O.3   457  INH457     -0.3900
     32  H5        19.8160   18.0190    4.7470 H     457  INH457      0.2100
@<TRIPOS>BOND
     1    21    22    1
     2    21     4    1
     3    13    10    1
     4     4     5    1
     5     4     3    1
     6    12    10    1
     7    12     6    1
     8    10     8    1
     9    32    31    1
    10    31     3    1
    11     5     6    1
    12     5     2    1
    13     6     7    1
    14     3     1    1
    15     8     7    2
    16     8    11    1
    17     7     9    1
    18     2     1    1
    19    20    18    1
    20     1    23    1
    21    18    19    1
    22    18    11    1
    23    11    14    1
    24    29    30    1
    25    29    25    1
    26     9    17    1
    27     9    15    1
    28    23    24    1
    29    14    15    1
    30    14    16    1
    31    27    25    1
    32    27    28    1
    33    24    25    1
    34    25    26    2
