@<TRIPOS>MOLECULE
/tmp/ewbell/vina_1ua4_1ua4_lig/vina/vina3.pdbqt
 32 34 0 0 0
SMALL
GASTEIGER

@<TRIPOS>ATOM
      1  C2        18.7120   15.7110    7.3490 C.3   457  INH457      0.1800
      2  O5        17.5150   14.8880    7.0730 O.3   457  INH457     -0.3530
      3  C3        20.0520   14.6860    7.1430 C.3   457  INH457      0.1820
      4  C4        19.3500   13.2600    7.2940 C.3   457  INH457      0.1980
      5  C5        17.8080   13.4950    6.9240 C.3   457  INH457      0.2620
      6  N1        17.4410   12.9570    5.5890 N.pl3 457  INH457     -0.2970
      7  C10       16.7840   11.7820    5.3780 C.2   457  INH457      0.1380
      8  C7        16.6550   11.6610    3.9700 C.2   457  INH457      0.1070
      9  N5        16.3590   10.9170    6.3540 N.pl3 457  INH457     -0.3370
     10  N2        17.2060   12.7370    3.2610 N.pl3 457  INH457     -0.3490
     11  C8        15.9920   10.4800    3.5210 C.3   457  INH457      0.6860
     12  C6        17.6620   13.4780    4.3030 C.3   457  INH457      0.1870
     13  H2        17.2510   12.9130    2.2570 H     457  INH457      0.1660
     14  N4        15.5610    9.6020    4.5230 N.3   457  INH457     -0.3520
     15  C9        15.7430    9.8320    5.8410 C.3   457  INH457      0.1790
     16  H4        15.0840    8.7450    4.2420 H     457  INH457      0.1620
     17  H         16.4890   11.0710    7.3190 H     457  INH457      0.1680
     18  N3        15.8270   10.2790    2.1650 N.3   457  INH457     -0.0950
     19  H11       16.0880   11.0200    1.4980 H     457  INH457      0.2600
     20  H10       15.4410    9.3890    1.8200 H     457  INH457      0.2600
     21  O7        19.3910   12.8110    8.6330 O.3   457  INH457     -0.3880
     22  H7        20.0020   12.0870    8.7050 H     457  INH457      0.2100
     23  C1        18.7820   17.0380    6.5720 C.3   457  INH457      0.2150
     24  O4        18.0200   17.9500    7.4290 O.3   457  INH457     -0.2940
     25  P1        17.3980   19.3500    6.8150 P.3   457  INH457      0.3900
     26  O3        18.2480   20.5170    7.2690 O.2   457  INH457     -0.6320
     27  O2        16.0020   19.4670    7.3070 O.3   457  INH457     -0.3070
     28  H         15.8850   18.9000    8.0850 H     457  INH457      0.2220
     29  O1        17.4650   19.1530    5.3700 O.3   457  INH457     -0.3070
     30  H         18.3420   19.4140    5.0490 H     457  INH457      0.2220
     31  O6        21.0840   15.0170    8.1720 O.3   457  INH457     -0.3900
     32  H5        20.6620   15.1560    9.0120 H     457  INH457      0.2100
@<TRIPOS>BOND
     1    19    18    1
     2    20    18    1
     3    18    11    1
     4    13    10    1
     5    10     8    1
     6    10    12    1
     7    11     8    1
     8    11    14    1
     9     8     7    2
    10    16    14    1
    11    12     6    1
    12    14    15    1
    13    30    29    1
    14    29    25    1
    15     7     6    1
    16     7     9    1
    17     6     5    1
    18    15     9    1
    19     9    17    1
    20    23     1    1
    21    23    24    1
    22    25    26    2
    23    25    27    1
    24    25    24    1
    25     5     2    1
    26     5     4    1
    27     2     1    1
    28     3     4    1
    29     3     1    1
    30     3    31    1
    31     4    21    1
    32    27    28    1
    33    31    32    1
    34    21    22    1
