@<TRIPOS>MOLECULE
/tmp/ewbell/vina_1ua4_1ua4_lig/vina/vina5.pdbqt
 32 34 0 0 0
SMALL
GASTEIGER

@<TRIPOS>ATOM
      1  C2        18.2770   15.9080    7.1900 C.3   457  INH457      0.1800
      2  O5        17.8670   14.6060    7.7570 O.3   457  INH457     -0.3530
      3  C3        19.1550   15.5570    5.7780 C.3   457  INH457      0.1820
      4  C4        19.5590   14.0380    6.0600 C.3   457  INH457      0.1980
      5  C5        18.4710   13.4870    7.1010 C.3   457  INH457      0.2620
      6  N1        17.4840   12.5670    6.4790 N.pl3 457  INH457     -0.2970
      7  C10       17.1030   11.3680    7.0010 C.2   457  INH457      0.1380
      8  C7        16.1630   10.8300    6.0830 C.2   457  INH457      0.1070
      9  N5        17.5630   10.8230    8.1720 N.pl3 457  INH457     -0.3370
     10  N2        15.9180   11.6600    4.9790 N.pl3 457  INH457     -0.3490
     11  C8        15.6320    9.5540    6.4350 C.3   457  INH457      0.6860
     12  C6        16.7500   12.6880    5.2870 C.3   457  INH457      0.1870
     13  H2        15.2970   11.5290    4.1810 H     457  INH457      0.1660
     14  N4        16.1060    9.0040    7.6330 N.3   457  INH457     -0.3520
     15  C9        17.0080    9.6200    8.4280 C.3   457  INH457      0.1790
     16  H4        15.7520    8.0910    7.9190 H     457  INH457      0.1620
     17  H         18.2230   11.2590    8.7590 H     457  INH457      0.1680
     18  N3        14.7140    8.9550    5.5960 N.3   457  INH457     -0.0950
     19  H11       13.9470    8.3910    5.9900 H     457  INH457      0.2600
     20  H10       14.7960    9.0720    4.5760 H     457  INH457      0.2600
     21  O7        20.8180   13.9540    6.6940 O.3   457  INH457     -0.3880
     22  H7        21.4340   14.5250    6.2510 H     457  INH457      0.2100
     23  C1        17.1380   16.9290    7.0120 C.3   457  INH457      0.2150
     24  O4        17.7020   18.1430    7.6070 O.3   457  INH457     -0.2940
     25  P1        17.8490   19.5210    6.7110 P.3   457  INH457      0.3900
     26  O3        18.7030   20.5190    7.4630 O.2   457  INH457     -0.6320
     27  O2        16.4800   20.0430    6.4740 O.3   457  INH457     -0.3070
     28  H         16.5220   20.9970    6.3050 H     457  INH457      0.2220
     29  O1        18.4920   19.0670    5.4820 O.3   457  INH457     -0.3070
     30  H         18.3760   18.1080    5.3920 H     457  INH457      0.2220
     31  O6        20.2910   16.5210    5.6550 O.3   457  INH457     -0.3900
     32  H5        20.3850   17.0060    6.4660 H     457  INH457      0.2100
@<TRIPOS>BOND
     1    13    10    1
     2    20    18    1
     3    10    12    1
     4    10     8    1
     5    12     6    1
     6    30    29    1
     7    29    25    1
     8    18    19    1
     9    18    11    1
    10    31     3    1
    11    31    32    1
    12     3     4    1
    13     3     1    1
    14     4    21    1
    15     4     5    1
    16     8    11    1
    17     8     7    2
    18    22    21    1
    19    28    27    1
    20    11    14    1
    21    27    25    1
    22     6     7    1
    23     6     5    1
    24    25    26    2
    25    25    24    1
    26     7     9    1
    27    23     1    1
    28    23    24    1
    29     5     2    1
    30     1     2    1
    31    14    16    1
    32    14    15    1
    33     9    15    1
    34     9    17    1
