@<TRIPOS>MOLECULE
./ligand/1yxd_lig.pdb
 25 24 0 0 0
SMALL
GASTEIGER

@<TRIPOS>ATOM
      1  N1       -42.7470   25.1820    5.3700 N.4   1181  INH1181     0.2289
      2  C1       -43.1380   24.5490    6.6710 C.3   1181  INH1181     0.0785
      3  C2       -41.9400   24.3840    7.5560 C.2   1181  INH1181     0.4026
      4  O1       -40.7960   24.5660    7.1240 O.co2 1181  INH1181    -0.2400
      5  C3       -43.8030   23.1790    6.4790 C.3   1181  INH1181     0.0011
      6  C4       -42.8940   22.0770    5.9150 C.3   1181  INH1181    -0.0426
      7  C5       -43.7420   20.8480    5.5670 C.3   1181  INH1181    -0.0124
      8  C6       -43.0160   19.5230    5.5360 C.3   1181  INH1181    -0.0354
      9  N2       -41.8270   19.5670    4.7040 N.4   1181  INH1181     0.2185
     10  O2       -42.0740   24.0590    8.7390 O.co2 1181  INH1181    -0.2400
     11  H1       -43.5630   25.2850    4.7880 H     1181  INH1181     0.2002
     12  H2       -42.0720   24.5980    4.9020 H     1181  INH1181     0.2002
     13  H3       -42.3430   26.0880    5.5450 H     1181  INH1181     0.2002
     14  H4       -43.8570   25.2150    7.1710 H     1181  INH1181     0.0970
     15  H5       -44.6500   23.3070    5.7880 H     1181  INH1181     0.0325
     16  H6       -44.1760   22.8430    7.4580 H     1181  INH1181     0.0325
     17  H7       -42.1400   21.8020    6.6670 H     1181  INH1181     0.0269
     18  H8       -42.3900   22.4440    5.0090 H     1181  INH1181     0.0269
     19  H9       -44.1800   21.0140    4.5720 H     1181  INH1181     0.0317
     20  H10      -44.5460   20.7730    6.3140 H     1181  INH1181     0.0317
     21  H11      -43.6970   18.7550    5.1400 H     1181  INH1181     0.0813
     22  H12      -42.7210   19.2570    6.5620 H     1181  INH1181     0.0813
     23  H13      -41.3770   18.6650    4.7130 H     1181  INH1181     0.1994
     24  H14      -41.1920   20.2630    5.0620 H     1181  INH1181     0.1994
     25  H15      -42.0870   19.8030    3.7590 H     1181  INH1181     0.1994
@<TRIPOS>BOND
     1    25     9    1
     2    19     7    1
     3     9    23    1
     4     9    24    1
     5     9     8    1
     6    11     1    1
     7    12     1    1
     8    18     6    1
     9    21     8    1
    10     1    13    1
    11     1     2    1
    12     8     7    1
    13     8    22    1
    14     7     6    1
    15     7    20    1
    16    15     5    1
    17     6     5    1
    18     6    17    1
    19     5     2    1
    20     5    16    1
    21     2    14    1
    22     2     3    1
    23     4     3   ar
    24     3    10   ar
