@<TRIPOS>MOLECULE
/tmp/ewbell/vina_1yxd_1yxd_lig/vina/vina3.pdbqt
 17 16 0 0 0
SMALL
GASTEIGER

@<TRIPOS>ATOM
      1  C1       -44.8760   26.6290   10.4930 C.3   1181  INH1181     0.2800
      2  N1       -45.3090   25.3420   11.1280 N.4   1181  INH1181    -0.0650
      3  H1       -46.3100   25.2500   11.0520 H     1181  INH1181     0.2750
      4  H2       -45.0440   25.3410   12.1010 H     1181  INH1181     0.2750
      5  H3       -44.8640   24.5700   10.6580 H     1181  INH1181     0.2750
      6  C3       -44.3550   26.4300    9.0630 C.3   1181  INH1181     0.0440
      7  C4       -42.9190   25.8950    8.9530 C.3   1181  INH1181     0.0040
      8  C5       -42.9440   24.5040    8.3090 C.3   1181  INH1181     0.0270
      9  C6       -43.5190   24.4250    6.9140 C.3   1181  INH1181     0.2290
     10  N2       -42.5960   24.9200    5.9090 N.4   1181  INH1181    -0.0790
     11  H15      -42.3750   25.8840    6.1010 H     1181  INH1181     0.2740
     12  H13      -43.0200   24.8470    4.9970 H     1181  INH1181     0.2740
     13  H14      -41.7500   24.3710    5.9310 H     1181  INH1181     0.2740
     14  C2       -46.0130   27.6060   10.4600 C.2   1181  INH1181     0.1710
     15  O1       -45.8400   28.7760   10.0990 O.2   1181  INH1181    -0.6480
     16  O2       -47.1480   27.2590   10.7960 O.3   1181  INH1181    -0.7750
     17  H        -47.4350   27.3880   11.6800 H     1181  INH1181     0.1670
@<TRIPOS>BOND
     1    12    10    1
     2    10    13    1
     3    10    11    1
     4    10     9    1
     5     9     8    1
     6     8     7    1
     7     7     6    1
     8     6     1    1
     9    15    14    2
    10    14     1    1
    11    14    16    1
    12     1     2    1
    13     5     2    1
    14    16    17    1
    15     3     2    1
    16     2     4    1
