@<TRIPOS>MOLECULE
/tmp/ewbell/vina_1yxd_1yxd_lig/vina/vina5.pdbqt
 17 16 0 0 0
SMALL
GASTEIGER

@<TRIPOS>ATOM
      1  C1       -43.2330   20.5940    5.9560 C.3   1181  INH1181     0.2800
      2  N1       -42.1820   19.8680    5.1720 N.4   1181  INH1181    -0.0650
      3  H1       -42.5920   19.0620    4.7280 H     1181  INH1181     0.2750
      4  H2       -41.4440   19.5720    5.7930 H     1181  INH1181     0.2750
      5  H3       -41.8030   20.4830    4.4700 H     1181  INH1181     0.2750
      6  C3       -42.6380   21.4380    7.0920 C.3   1181  INH1181     0.0440
      7  C4       -41.1380   21.7440    6.9710 C.3   1181  INH1181     0.0040
      8  C5       -40.9370   23.2580    6.8380 C.3   1181  INH1181     0.0270
      9  C6       -42.1520   24.1170    7.0950 C.3   1181  INH1181     0.2290
     10  N2       -42.5570   24.8650    5.9180 N.4   1181  INH1181    -0.0790
     11  H15      -43.5270   25.1250    6.0030 H     1181  INH1181     0.2740
     12  H13      -42.4320   24.2940    5.0970 H     1181  INH1181     0.2740
     13  H14      -41.9920   25.6960    5.8380 H     1181  INH1181     0.2740
     14  C2       -44.0330   21.4890    5.0590 C.2   1181  INH1181     0.1710
     15  O1       -45.2550   21.3430    4.9340 O.2   1181  INH1181    -0.6480
     16  O2       -43.4840   22.3920    4.4220 O.3   1181  INH1181    -0.7750
     17  H        -43.4150   22.3320    3.4880 H     1181  INH1181     0.1670
@<TRIPOS>BOND
     1    17    16    1
     2    16    14    1
     3     5     2    1
     4     3     2    1
     5    15    14    2
     6    14     1    1
     7    12    10    1
     8     2     4    1
     9     2     1    1
    10    13    10    1
    11    10    11    1
    12    10     9    1
    13     1     6    1
    14     8     7    1
    15     8     9    1
    16     7     6    1
