@<TRIPOS>MOLECULE
/tmp/ewbell/vina_1yxd_1yxd_lig/vina/vina1.pdbqt
 17 16 0 0 0
SMALL
GASTEIGER

@<TRIPOS>ATOM
      1  C1       -42.9270   22.6140    6.1550 C.3   1181  INH1181     0.2800
      2  N1       -42.4920   22.1010    4.8160 N.4   1181  INH1181    -0.0650
      3  H1       -42.6080   22.8260    4.1250 H     1181  INH1181     0.2750
      4  H2       -43.0540   21.3020    4.5630 H     1181  INH1181     0.2750
      5  H3       -41.5230   21.8300    4.8590 H     1181  INH1181     0.2750
      6  C3       -43.0370   21.4980    7.2030 C.3   1181  INH1181     0.0440
      7  C4       -42.7200   20.0840    6.6960 C.3   1181  INH1181     0.0040
      8  C5       -41.4740   19.5530    7.4160 C.3   1181  INH1181     0.0270
      9  C6       -40.1640   20.2140    7.0560 C.3   1181  INH1181     0.2290
     10  N2       -39.5750   20.9170    8.1810 N.4   1181  INH1181    -0.0790
     11  H15      -39.3420   21.8580    7.9040 H     1181  INH1181     0.2740
     12  H13      -38.7400   20.4380    8.4780 H     1181  INH1181     0.2740
     13  H14      -40.2350   20.9450    8.9420 H     1181  INH1181     0.2740
     14  C2       -41.9690   23.6530    6.6550 C.2   1181  INH1181     0.1710
     15  O1       -41.2950   23.4630    7.6750 O.2   1181  INH1181    -0.6480
     16  O2       -41.8350   24.7230    6.0570 O.3   1181  INH1181    -0.7750
     17  H        -42.5270   25.3550    6.0650 H     1181  INH1181     0.1670
@<TRIPOS>BOND
     1     3     2    1
     2     4     2    1
     3     2     5    1
     4     2     1    1
     5    16    17    1
     6    16    14    1
     7     1    14    1
     8     1     6    1
     9    14    15    2
    10     7     6    1
    11     7     8    1
    12     9     8    1
    13     9    10    1
    14    11    10    1
    15    10    12    1
    16    10    13    1
