@<TRIPOS>MOLECULE
/tmp/ewbell/vina_1yxd_1yxd_lig/vina/vina4.pdbqt
 17 16 0 0 0
SMALL
GASTEIGER

@<TRIPOS>ATOM
      1  C1       -42.4070   23.9170    6.8710 C.3   1181  INH1181     0.2800
      2  N1       -42.5720   24.8320    5.6950 N.4   1181  INH1181    -0.0650
      3  H1       -42.5530   24.2920    4.8440 H     1181  INH1181     0.2750
      4  H2       -41.8200   25.5040    5.6840 H     1181  INH1181     0.2750
      5  H3       -43.4530   25.3150    5.7670 H     1181  INH1181     0.2750
      6  C3       -41.1360   23.0620    6.7730 C.3   1181  INH1181     0.0440
      7  C4       -41.3530   21.5440    6.8610 C.3   1181  INH1181     0.0040
      8  C5       -42.6040   21.1630    6.0620 C.3   1181  INH1181     0.0270
      9  C6       -43.0190   19.7110    6.1240 C.3   1181  INH1181     0.2290
     10  N2       -42.9570   19.0640    4.8260 N.4   1181  INH1181    -0.0790
     11  H15      -42.5890   19.7100    4.1460 H     1181  INH1181     0.2740
     12  H13      -43.8820   18.7760    4.5490 H     1181  INH1181     0.2740
     13  H14      -42.3560   18.2570    4.8820 H     1181  INH1181     0.2740
     14  C2       -42.3630   24.7030    8.1460 C.2   1181  INH1181     0.1710
     15  O1       -42.7370   24.2080    9.2160 O.2   1181  INH1181    -0.6480
     16  O2       -41.9520   25.8660    8.1520 O.3   1181  INH1181    -0.7750
     17  H        -41.1450   26.0810    7.7260 H     1181  INH1181     0.1670
@<TRIPOS>BOND
     1    11    10    1
     2    12    10    1
     3    10    13    1
     4    10     9    1
     5     3     2    1
     6     4     2    1
     7     2     5    1
     8     2     1    1
     9     8     9    1
    10     8     7    1
    11     6     7    1
    12     6     1    1
    13     1    14    1
    14    17    16    1
    15    14    16    1
    16    14    15    2
