@<TRIPOS>MOLECULE
/tmp/ewbell/vina_1yxd_1yxd_lig/vina/vina2.pdbqt
 17 16 0 0 0
SMALL
GASTEIGER

@<TRIPOS>ATOM
      1  C1       -41.7510   24.3840    6.7110 C.3   1181  INH1181     0.2800
      2  N1       -42.7590   24.9020    5.7300 N.4   1181  INH1181    -0.0650
      3  H1       -43.2580   25.6770    6.1400 H     1181  INH1181     0.2750
      4  H2       -43.4100   24.1680    5.4980 H     1181  INH1181     0.2750
      5  H3       -42.2870   25.2110    4.8950 H     1181  INH1181     0.2750
      6  C3       -42.0390   24.8460    8.1460 C.3   1181  INH1181     0.0440
      7  C4       -43.3500   25.6220    8.3390 C.3   1181  INH1181     0.0040
      8  C5       -43.3640   26.2560    9.7350 C.3   1181  INH1181     0.0270
      9  C6       -44.7240   26.5590   10.3170 C.3   1181  INH1181     0.2290
     10  N2       -45.2520   25.4500   11.0910 N.4   1181  INH1181    -0.0790
     11  H15      -45.6100   24.7450   10.4660 H     1181  INH1181     0.2740
     12  H13      -45.9930   25.7790   11.6890 H     1181  INH1181     0.2740
     13  H14      -44.5150   25.0550   11.6550 H     1181  INH1181     0.2740
     14  C2       -41.7140   22.8860    6.6840 C.2   1181  INH1181     0.1710
     15  O1       -41.6680   22.2290    7.7300 O.2   1181  INH1181    -0.6480
     16  O2       -41.7290   22.2770    5.6110 O.3   1181  INH1181    -0.7750
     17  H        -41.5630   21.3540    5.5930 H     1181  INH1181     0.1670
@<TRIPOS>BOND
     1     5     2    1
     2     4     2    1
     3    17    16    1
     4    16    14    1
     5     2     3    1
     6     2     1    1
     7    14     1    1
     8    14    15    2
     9     1     6    1
    10     6     7    1
    11     7     8    1
    12     8     9    1
    13     9    10    1
    14    11    10    1
    15    10    13    1
    16    10    12    1
