@<TRIPOS>MOLECULE
./ligand/2i0a_lig.pdb
 84 87 0 0 0
SMALL
GASTEIGER

@<TRIPOS>ATOM
      1  O1        20.8850   22.5110    4.6420 O.2   203  INH203     -0.2924
      2  C1        20.4790   23.6320    4.9430 C.2   203  INH203      0.1601
      3  C2        19.8080   24.5120    3.9400 C.3   203  INH203     -0.0014
      4  C3        20.6710   24.1630    6.3340 C.ar  203  INH203      0.0172
      5  C4        20.1340   25.3970    6.6980 C.ar  203  INH203     -0.0495
      6  C5        20.3150   25.9010    7.9720 C.ar  203  INH203     -0.0395
      7  C6        21.4030   23.4380    7.2640 C.ar  203  INH203     -0.0495
      8  C7        21.5950   23.9420    8.5470 C.ar  203  INH203     -0.0395
      9  C8        21.0330   25.1700    8.9220 C.ar  203  INH203      0.0396
     10  N1        21.2330   25.7270   10.1970 N.am  203  INH203     -0.2333
     11  C9        21.5610   25.0660   11.2880 C.2   203  INH203      0.4081
     12  O2        21.6440   23.8610   11.4630 O.2   203  INH203     -0.2259
     13  O3        21.8790   26.0090   12.3310 O.3   203  INH203     -0.4356
     14  C10       21.2010   27.1640   10.3950 C.3   203  INH203      0.0688
     15  C11       21.9140   27.3160   11.7480 C.3   203  INH203      0.1958
     16  C12       21.1500   28.3670   12.4960 C.2   203  INH203      0.2559
     17  O4        21.2200   29.5310   12.1150 O.2   203  INH203     -0.2717
     18  N2        20.4170   27.9480   13.5300 N.am  203  INH203     -0.3065
     19  C13       19.5000   28.8090   14.2840 C.3   203  INH203      0.0543
     20  C14       18.1890   28.0010   14.2300 C.3   203  INH203     -0.0067
     21  C15       17.8880   27.6200   12.7850 C.ar  203  INH203     -0.0455
     22  C16       17.5020   28.5870   11.8650 C.ar  203  INH203     -0.0585
     23  C17       17.2600   28.2310   10.5390 C.ar  203  INH203     -0.0615
     24  C18       17.3820   26.9140   10.1210 C.ar  203  INH203     -0.0617
     25  C19       17.7720   25.9410   11.0340 C.ar  203  INH203     -0.0615
     26  C20       18.0180   26.2920   12.3560 C.ar  203  INH203     -0.0585
     27  C21       19.9750   29.1550   15.6950 C.3   203  INH203      0.0881
     28  O5        19.9060   28.0150   16.5600 O.3   203  INH203     -0.3886
     29  C22       19.1370   30.2990   16.2850 C.3   203  INH203      0.0483
     30  N3        19.3880   31.5470   15.5200 N.3   203  INH203     -0.1738
     31  C23       20.1700   32.5410   16.2880 C.3   203  INH203      0.0229
     32  C24       21.6620   32.1890   16.2950 C.3   203  INH203     -0.0323
     33  C25       22.4280   33.1840   17.1590 C.3   203  INH203     -0.0615
     34  C26       22.2640   32.1250   14.8890 C.3   203  INH203     -0.0615
     35  S1        18.0720   32.2190   14.8140 S.O2  203  INH203      0.0609
     36  O6        17.2770   31.1770   14.2510 O.2   203  INH203     -0.1528
     37  O7        18.6210   33.0520   13.7690 O.2   203  INH203     -0.1528
     38  C27       17.1930   33.1010   15.8520 C.ar  203  INH203      0.1057
     39  C28       16.2110   32.5170   16.6620 C.ar  203  INH203     -0.0319
     40  C29       15.4760   33.2890   17.5760 C.ar  203  INH203     -0.0181
     41  C30       15.7060   34.6590   17.6890 C.ar  203  INH203      0.1202
     42  O8        14.9750   35.4000   18.5900 O.3   203  INH203     -0.4951
     43  C31       15.2940   36.7590   18.9010 C.3   203  INH203      0.0788
     44  C32       16.6790   35.2490   16.8710 C.ar  203  INH203     -0.0181
     45  C33       17.4090   34.4720   15.9660 C.ar  203  INH203     -0.0319
     46  H1        19.5270   25.4630    4.4160 H     203  INH203      0.0309
     47  H2        18.9060   24.0120    3.5590 H     203  INH203      0.0309
     48  H3        20.4980   24.7100    3.1060 H     203  INH203      0.0309
     49  H4        19.5670   25.9690    5.9720 H     203  INH203      0.0625
     50  H5        19.8990   26.8670    8.2350 H     203  INH203      0.0636
     51  H6        21.8260   22.4780    6.9910 H     203  INH203      0.0625
     52  H7        22.1840   23.3800    9.2620 H     203  INH203      0.0636
     53  H8        20.1680   27.5380   10.4440 H     203  INH203      0.0511
     54  H9        21.7440   27.6900    9.5960 H     203  INH203      0.0511
     55  H10       22.9580   27.6390   11.6230 H     203  INH203      0.0849
     56  H11       20.4980   26.9900   13.8070 H     203  INH203      0.1492
     57  H12       19.3660   29.7600   13.7480 H     203  INH203      0.0527
     58  H13       17.3650   28.6110   14.6280 H     203  INH203      0.0332
     59  H14       18.2950   27.0890   14.8350 H     203  INH203      0.0332
     60  H15       17.3890   29.6190   12.1780 H     203  INH203      0.0620
     61  H16       16.9720   28.9940    9.8250 H     203  INH203      0.0618
     62  H17       17.1750   26.6460    9.0910 H     203  INH203      0.0618
     63  H18       17.8840   24.9110   10.7150 H     203  INH203      0.0618
     64  H19       18.3150   25.5280   13.0650 H     203  INH203      0.0620
     65  H20       21.0230   29.4840   15.6340 H     203  INH203      0.0625
     66  H21       19.0050   27.7190   16.6220 H     203  INH203      0.2099
     67  H22       19.4170   30.4520   17.3380 H     203  INH203      0.0470
     68  H23       18.0700   30.0400   16.2230 H     203  INH203      0.0470
     69  H24       19.8020   32.5630   17.3240 H     203  INH203      0.0446
     70  H25       20.0380   33.5330   15.8300 H     203  INH203      0.0446
     71  H26       21.7670   31.1920   16.7470 H     203  INH203      0.0308
     72  H27       23.4970   32.9240   17.1580 H     203  INH203      0.0233
     73  H28       22.0430   33.1480   18.1890 H     203  INH203      0.0233
     74  H29       22.2970   34.1980   16.7540 H     203  INH203      0.0233
     75  H30       21.6990   31.4030   14.2810 H     203  INH203      0.0233
     76  H31       23.3150   31.8070   14.9540 H     203  INH203      0.0233
     77  H32       22.2110   33.1190   14.4220 H     203  INH203      0.0233
     78  H33       16.0160   31.4540   16.5820 H     203  INH203      0.0638
     79  H34       14.7240   32.8160   18.1980 H     203  INH203      0.0655
     80  H35       14.5770   37.1440   19.6410 H     203  INH203      0.0660
     81  H36       15.2380   37.3670   17.9860 H     203  INH203      0.0660
     82  H37       16.3120   36.8110   19.3150 H     203  INH203      0.0660
     83  H38       16.8670   36.3140   16.9400 H     203  INH203      0.0655
     84  H39       18.1570   34.9460   15.3410 H     203  INH203      0.0638
@<TRIPOS>BOND
     1     1     2    2
     2     2     4    1
     3     2     3    1
     4     3    48    1
     5     3    47    1
     6     3    46    1
     7     4     7   ar
     8     4     5   ar
     9     5    49    1
    10     5     6   ar
    11     6    50    1
    12     6     9   ar
    13     7     8   ar
    14     7    51    1
    15     8     9   ar
    16     8    52    1
    17     9    10    1
    18    10    14    1
    19    10    11   am
    20    11    13    1
    21    11    12    2
    22    13    15    1
    23    14    15    1
    24    14    54    1
    25    14    53    1
    26    15    55    1
    27    15    16    1
    28    16    18   am
    29    16    17    2
    30    18    56    1
    31    18    19    1
    32    19    57    1
    33    19    27    1
    34    19    20    1
    35    20    59    1
    36    20    58    1
    37    20    21    1
    38    21    26   ar
    39    21    22   ar
    40    22    60    1
    41    22    23   ar
    42    23    61    1
    43    23    24   ar
    44    24    62    1
    45    24    25   ar
    46    25    63    1
    47    25    26   ar
    48    26    64    1
    49    27    65    1
    50    27    29    1
    51    27    28    1
    52    28    66    1
    53    29    68    1
    54    29    67    1
    55    29    30    1
    56    30    35    1
    57    30    31    1
    58    31    70    1
    59    31    69    1
    60    31    32    1
    61    32    71    1
    62    32    34    1
    63    32    33    1
    64    33    74    1
    65    33    73    1
    66    33    72    1
    67    34    77    1
    68    34    76    1
    69    34    75    1
    70    35    38    1
    71    35    37    2
    72    35    36    2
    73    38    45   ar
    74    38    39   ar
    75    39    78    1
    76    39    40   ar
    77    40    79    1
    78    40    41   ar
    79    41    44   ar
    80    41    42    1
    81    42    43    1
    82    43    82    1
    83    43    81    1
    84    43    80    1
    85    44    83    1
    86    44    45   ar
    87    45    84    1
