@<TRIPOS>MOLECULE
/tmp/ewbell/vina_2i0a_2i0a_lig/vina/vina5.pdbqt
 47 50 0 0 0
SMALL
GASTEIGER

@<TRIPOS>ATOM
      1  C13       20.0900   27.2430   10.4260 C.3   203  INH203      0.1180
      2  N2        20.1780   25.8630   10.9160 N.am  203  INH203     -0.3510
      3  C12       21.0470   24.9630   10.4520 C.2   203  INH203      0.2490
      4  O4        21.1440   23.8090   10.8590 O.2   203  INH203     -0.2710
      5  H11       19.5490   25.5800   11.6420 H     203  INH203      0.1630
      6  C11       21.9800   25.4280    9.3740 C.3   203  INH203      0.2430
      7  O3        23.2790   25.8230    9.8240 O.3   203  INH203     -0.2870
      8  C9        24.2550   25.1870    8.9760 C.2   203  INH203      0.3680
      9  N1        23.6450   24.3210    8.1930 N.am  203  INH203     -0.2910
     10  O2        25.4380   25.4890    9.0170 O.2   203  INH203     -0.2380
     11  C10       22.2280   24.2050    8.4770 C.3   203  INH203      0.1770
     12  C8        24.2230   23.6360    7.1110 C.ar  203  INH203      0.0390
     13  C5        24.4770   24.3350    5.9280 C.ar  203  INH203      0.0310
     14  C4        25.0800   23.6990    4.8600 C.ar  203  INH203      0.0170
     15  C3        25.4540   22.3580    4.9430 C.ar  203  INH203      0.0090
     16  C6        25.2240   21.6600    6.1200 C.ar  203  INH203      0.0170
     17  C7        24.6230   22.2950    7.2030 C.ar  203  INH203      0.0310
     18  C1        26.1200   21.6820    3.7800 C.2   203  INH203      0.1550
     19  O1        26.4460   20.4990    3.8510 O.2   203  INH203     -0.2930
     20  C2        26.3920   22.4930    2.5560 C.3   203  INH203      0.0960
     21  C21       20.7670   28.2770   11.3250 C.3   203  INH203      0.1550
     22  C22       20.8230   27.7800   12.7770 C.3   203  INH203      0.1410
     23  N3        20.7010   28.9340   13.7040 N.3   203  INH203     -0.2040
     24  S1        19.5090   28.8190   14.8210 S.O2  203  INH203      0.2430
     25  O7        18.5570   27.9090   14.2280 O.2   203  INH203     -0.2060
     26  O6        20.0560   28.2560   16.0130 O.2   203  INH203     -0.2060
     27  C27       18.8170   30.2490   15.1400 C.ar  203  INH203      0.0740
     28  C33       18.1730   30.9590   14.1300 C.ar  203  INH203      0.0270
     29  C32       17.5890   32.2050   14.3760 C.ar  203  INH203      0.0380
     30  C30       17.6400   32.7720   15.6570 C.ar  203  INH203      0.0680
     31  C29       18.2740   32.0660   16.6780 C.ar  203  INH203      0.0380
     32  C28       18.8550   30.8130   16.4220 C.ar  203  INH203      0.0270
     33  O8        17.0750   33.9980   15.9270 O.3   203  INH203     -0.3560
     34  C31       16.4400   34.7860   14.9170 C.3   203  INH203      0.2100
     35  C23       21.9940   29.3180   14.3140 C.3   203  INH203      0.1110
     36  C24       22.3330   30.7830   14.0200 C.3   203  INH203     -0.0090
     37  C26       21.4000   31.4130   12.9820 C.3   203  INH203      0.0110
     38  C25       22.3150   31.5920   15.3130 C.3   203  INH203      0.0110
     39  O5        22.0930   28.5720   10.8680 O.3   203  INH203     -0.3920
     40  H21       22.3730   27.9030   10.2550 H     203  INH203      0.2100
     41  C14       18.5680   27.4280   10.2720 C.3   203  INH203      0.0660
     42  C15       18.1040   26.7550    8.9860 C.ar  203  INH203     -0.0560
     43  C20       17.2740   25.6250    9.0310 C.ar  203  INH203      0.0070
     44  C19       16.8690   24.9890    7.8630 C.ar  203  INH203      0.0010
     45  C18       17.2810   25.4810    6.6300 C.ar  203  INH203      0.0000
     46  C17       18.1070   26.5920    6.5800 C.ar  203  INH203      0.0010
     47  C16       18.5130   27.2360    7.7480 C.ar  203  INH203      0.0070
@<TRIPOS>BOND
     1    20    18    1
     2    18    19    2
     3    18    15    1
     4    14    15   ar
     5    14    13   ar
     6    15    16   ar
     7    13    12   ar
     8    16    17   ar
     9    46    45   ar
    10    46    47   ar
    11    45    44   ar
    12    12    17   ar
    13    12     9    1
    14    47    42   ar
    15    44    43   ar
    16     9    11    1
    17     9     8   am
    18    11     6    1
    19     8    10    2
    20     8     7    1
    21    42    43   ar
    22    42    41    1
    23     6     7    1
    24     6     3    1
    25    40    39    1
    26    41     1    1
    27     1     2    1
    28     1    21    1
    29     3     4    2
    30     3     2   am
    31    39    21    1
    32     2     5    1
    33    21    22    1
    34    22    23    1
    35    37    36    1
    36    23    35    1
    37    23    24    1
    38    36    35    1
    39    36    38    1
    40    28    29   ar
    41    28    27   ar
    42    25    24    2
    43    29    30   ar
    44    24    27    1
    45    24    26    2
    46    34    33    1
    47    27    32   ar
    48    30    33    1
    49    30    31   ar
    50    32    31   ar
