@<TRIPOS>MOLECULE
/tmp/ewbell/vina_2i0a_2i0a_lig/vina/vina4.pdbqt
 47 50 0 0 0
SMALL
GASTEIGER

@<TRIPOS>ATOM
      1  C13       20.4510   28.1980   13.2130 C.3   203  INH203      0.1180
      2  N2        19.3140   28.8590   12.5640 N.am  203  INH203     -0.3510
      3  C12       18.6480   28.3470   11.5270 C.2   203  INH203      0.2490
      4  O4        17.6870   28.8800   10.9810 O.2   203  INH203     -0.2710
      5  H11       19.0210   29.7470   12.9210 H     203  INH203      0.1630
      6  C11       19.1110   27.0110   11.0290 C.3   203  INH203      0.2430
      7  O3        18.0680   26.0700   10.7560 O.3   203  INH203     -0.2870
      8  C9        18.3170   25.4960    9.4570 C.2   203  INH203      0.3680
      9  N1        19.3060   26.1490    8.8820 N.am  203  INH203     -0.2910
     10  O2        17.6880   24.5340    9.0470 O.2   203  INH203     -0.2380
     11  C10       19.7710   27.2760    9.6670 C.3   203  INH203      0.1770
     12  C8        19.9580   25.7800    7.6920 C.ar  203  INH203      0.0390
     13  C5        21.2330   25.2140    7.7700 C.ar  203  INH203      0.0310
     14  C4        21.8840   24.8050    6.6220 C.ar  203  INH203      0.0170
     15  C3        21.2810   24.9380    5.3710 C.ar  203  INH203      0.0090
     16  C6        20.0060   25.4820    5.2850 C.ar  203  INH203      0.0170
     17  C7        19.3420   25.8900    6.4380 C.ar  203  INH203      0.0310
     18  C1        21.9930   24.4790    4.1320 C.2   203  INH203      0.1550
     19  O1        21.3550   24.0940    3.1540 O.2   203  INH203     -0.2930
     20  C2        23.4860   24.4810    4.1360 C.3   203  INH203      0.0960
     21  C21       20.4890   28.3520   14.7330 C.3   203  INH203      0.1550
     22  C22       20.8330   29.7970   15.1240 C.3   203  INH203      0.1410
     23  N3        19.7540   30.7080   14.6640 N.3   203  INH203     -0.2040
     24  S1        18.4650   30.8380   15.6670 S.O2  203  INH203      0.2430
     25  O7        17.4610   29.9950   15.0610 O.2   203  INH203     -0.2060
     26  O6        18.8330   30.3300   16.9480 O.2   203  INH203     -0.2060
     27  C27       17.9330   32.3640   15.7980 C.ar  203  INH203      0.0740
     28  C33       18.1430   33.0820   16.9730 C.ar  203  INH203      0.0270
     29  C32       17.6720   34.3910   17.1170 C.ar  203  INH203      0.0380
     30  C30       16.9730   35.0130   16.0730 C.ar  203  INH203      0.0680
     31  C29       16.7660   34.3060   14.8900 C.ar  203  INH203      0.0380
     32  C28       17.2450   32.9930   14.7520 C.ar  203  INH203      0.0270
     33  O8        16.4970   36.3000   16.1890 O.3   203  INH203     -0.3560
     34  C31       16.5900   37.0420   17.4080 C.3   203  INH203      0.2100
     35  C23       20.2630   32.0330   14.2460 C.3   203  INH203      0.1110
     36  C24       21.5500   32.3960   14.9960 C.3   203  INH203     -0.0090
     37  C26       22.7820   32.4180   14.0870 C.3   203  INH203      0.0110
     38  C25       21.3810   33.7370   15.7010 C.3   203  INH203      0.0110
     39  O5        19.2370   27.9810   15.3230 O.3   203  INH203     -0.3920
     40  H21       19.3800   27.7040   16.2200 H     203  INH203      0.2100
     41  C14       21.6480   28.8290   12.4750 C.3   203  INH203      0.0660
     42  C15       22.6640   27.7440   12.1370 C.ar  203  INH203     -0.0560
     43  C20       24.0390   28.0010   12.2280 C.ar  203  INH203      0.0070
     44  C19       24.9710   27.0250   11.8950 C.ar  203  INH203      0.0010
     45  C18       24.5410   25.7720   11.4740 C.ar  203  INH203      0.0000
     46  C17       23.1820   25.5160   11.3750 C.ar  203  INH203      0.0010
     47  C16       22.2440   26.4900   11.7120 C.ar  203  INH203      0.0070
@<TRIPOS>BOND
     1    19    18    2
     2    18    20    1
     3    18    15    1
     4    16    15   ar
     5    16    17   ar
     6    15    14   ar
     7    17    12   ar
     8    14    13   ar
     9    12    13   ar
    10    12     9    1
    11     9     8   am
    12     9    11    1
    13    10     8    2
    14     8     7    1
    15    11     6    1
    16     7     6    1
    17     4     3    2
    18     6     3    1
    19    46    45   ar
    20    46    47   ar
    21    45    44   ar
    22     3     2   am
    23    47    42   ar
    24    44    43   ar
    25    42    43   ar
    26    42    41    1
    27    41     1    1
    28     2     5    1
    29     2     1    1
    30     1    21    1
    31    37    36    1
    32    35    23    1
    33    35    36    1
    34    23    22    1
    35    23    24    1
    36    21    22    1
    37    21    39    1
    38    32    31   ar
    39    32    27   ar
    40    31    30   ar
    41    36    38    1
    42    25    24    2
    43    39    40    1
    44    24    27    1
    45    24    26    2
    46    27    28   ar
    47    30    33    1
    48    30    29   ar
    49    33    34    1
    50    28    29   ar
