@<TRIPOS>MOLECULE
/tmp/ewbell/vina_2i0a_2i0a_lig/vina/vina1.pdbqt
 47 50 0 0 0
SMALL
GASTEIGER

@<TRIPOS>ATOM
      1  C13       19.8560   30.7810   15.2380 C.3   203  INH203      0.1180
      2  N2        21.1720   31.2440   14.7850 N.am  203  INH203     -0.3510
      3  C12       21.9580   32.0580   15.4940 C.2   203  INH203      0.2490
      4  O4        23.0660   32.4450   15.1370 O.2   203  INH203     -0.2710
      5  H11       21.4990   30.9320   13.8930 H     203  INH203      0.1630
      6  C11       21.4370   32.4940   16.8300 C.3   203  INH203      0.2430
      7  O3        22.3610   33.2430   17.6270 O.3   203  INH203     -0.2870
      8  C9        21.6750   34.4090   18.1220 C.2   203  INH203      0.3680
      9  N1        20.4970   34.4950   17.5390 N.am  203  INH203     -0.2910
     10  O2        22.1660   35.1320   18.9760 O.2   203  INH203     -0.2380
     11  C10       20.2880   33.4710   16.5340 C.3   203  INH203      0.1770
     12  C8        19.4670   35.3870   17.8850 C.ar  203  INH203      0.0390
     13  C5        18.2700   34.8730   18.3890 C.ar  203  INH203      0.0310
     14  C4        17.2530   35.7260   18.7750 C.ar  203  INH203      0.0170
     15  C3        17.4050   37.1090   18.6790 C.ar  203  INH203      0.0090
     16  C6        18.5980   37.6310   18.1970 C.ar  203  INH203      0.0170
     17  C7        19.6290   36.7780   17.8130 C.ar  203  INH203      0.0310
     18  C1        16.2980   38.0270   19.1120 C.2   203  INH203      0.1550
     19  O1        15.2190   37.5690   19.4810 O.2   203  INH203     -0.2930
     20  C2        16.5420   39.4990   19.0550 C.3   203  INH203      0.0960
     21  C21       19.7830   29.2840   15.5410 C.3   203  INH203      0.1550
     22  C22       20.8380   28.5150   14.7320 C.3   203  INH203      0.1410
     23  N3        20.4450   28.4860   13.3000 N.3   203  INH203     -0.2040
     24  S1        21.6840   28.4680   12.2290 S.O2  203  INH203      0.2430
     25  O7        21.4580   29.6360   11.4090 O.2   203  INH203     -0.2060
     26  O6        22.9090   28.5960   12.9480 O.2   203  INH203     -0.2060
     27  C27       21.7010   27.1240   11.3230 C.ar  203  INH203      0.0740
     28  C33       20.8730   27.0180   10.2080 C.ar  203  INH203      0.0270
     29  C32       20.8530   25.8590    9.4250 C.ar  203  INH203      0.0380
     30  C30       21.6740   24.7700    9.7490 C.ar  203  INH203      0.0680
     31  C29       22.5140   24.8700   10.8570 C.ar  203  INH203      0.0380
     32  C28       22.5290   26.0380   11.6360 C.ar  203  INH203      0.0270
     33  O8        21.6740   23.6170    8.9970 O.3   203  INH203     -0.3560
     34  C31       21.8700   23.6270    7.5810 C.3   203  INH203      0.2100
     35  C23       19.4430   27.4390   13.0020 C.3   203  INH203      0.1110
     36  C24       18.0330   28.0320   12.9050 C.3   203  INH203     -0.0090
     37  C26       17.5290   28.1340   11.4620 C.3   203  INH203      0.0110
     38  C25       17.0640   27.2140   13.7520 C.3   203  INH203      0.0110
     39  O5        19.9710   29.0280   16.9380 O.3   203  INH203     -0.3920
     40  H21       20.6650   28.3910   17.0530 H     203  INH203      0.2100
     41  C14       18.9420   31.2460   14.0880 C.3   203  INH203      0.0660
     42  C15       17.8040   32.0870   14.6540 C.ar  203  INH203     -0.0560
     43  C20       17.7240   33.4580   14.3750 C.ar  203  INH203      0.0070
     44  C19       16.7040   34.2370   14.9100 C.ar  203  INH203      0.0010
     45  C18       15.7420   33.6530   15.7260 C.ar  203  INH203      0.0000
     46  C17       15.8230   32.2980   16.0110 C.ar  203  INH203      0.0010
     47  C16       16.8410   31.5120   15.4740 C.ar  203  INH203      0.0070
@<TRIPOS>BOND
     1    34    33    1
     2    33    30    1
     3    29    30   ar
     4    29    28   ar
     5    30    31   ar
     6    28    27   ar
     7    31    32   ar
     8    27    32   ar
     9    27    24    1
    10    25    24    2
    11    37    36    1
    12    24    26    2
    13    24    23    1
    14    36    35    1
    15    36    38    1
    16    35    23    1
    17    23    22    1
    18     5     2    1
    19    41    42    1
    20    41     1    1
    21    43    42   ar
    22    43    44   ar
    23    42    47   ar
    24    22    21    1
    25     2     1    1
    26     2     3   am
    27    44    45   ar
    28     4     3    2
    29     1    21    1
    30    47    46   ar
    31     3     6    1
    32    21    39    1
    33    45    46   ar
    34    11     6    1
    35    11     9    1
    36     6     7    1
    37    39    40    1
    38     9    12    1
    39     9     8   am
    40     7     8    1
    41    17    12   ar
    42    17    16   ar
    43    12    13   ar
    44     8    10    2
    45    16    15   ar
    46    13    14   ar
    47    15    14   ar
    48    15    18    1
    49    20    18    1
    50    18    19    2
