@<TRIPOS>MOLECULE
/tmp/ewbell/vina_2i0a_2i0a_lig/vina/vina3.pdbqt
 47 50 0 0 0
SMALL
GASTEIGER

@<TRIPOS>ATOM
      1  C13       20.5960   30.8110   14.2960 C.3   203  INH203      0.1180
      2  N2        21.8960   31.4570   14.0840 N.am  203  INH203     -0.3510
      3  C12       22.5090   32.2110   14.9980 C.2   203  INH203      0.2490
      4  O4        23.6020   32.7480   14.8420 O.2   203  INH203     -0.2710
      5  H11       22.3490   31.3250   13.2010 H     203  INH203      0.1630
      6  C11       21.8050   32.3770   16.3110 C.3   203  INH203      0.2430
      7  O3        22.6150   32.8830   17.3760 O.3   203  INH203     -0.2870
      8  C9        21.8900   33.9510   18.0160 C.2   203  INH203      0.3680
      9  N1        20.8150   34.2260   17.3070 N.am  203  INH203     -0.2910
     10  O2        22.2640   34.4430   19.0690 O.2   203  INH203     -0.2380
     11  C10       20.7360   33.4560   16.0800 C.3   203  INH203      0.1770
     12  C8        19.7650   35.0780   17.6930 C.ar  203  INH203      0.0390
     13  C5        18.5540   34.5150   18.1010 C.ar  203  INH203      0.0310
     14  C4        17.5170   35.3240   18.5240 C.ar  203  INH203      0.0170
     15  C3        17.6620   36.7110   18.5610 C.ar  203  INH203      0.0090
     16  C6        18.8680   37.2800   18.1760 C.ar  203  INH203      0.0170
     17  C7        19.9190   36.4710   17.7560 C.ar  203  INH203      0.0310
     18  C1        16.5320   37.5790   19.0340 C.2   203  INH203      0.1550
     19  O1        16.7600   38.6010   19.6780 O.2   203  INH203     -0.2930
     20  C2        15.1360   37.1510   18.7200 C.3   203  INH203      0.0960
     21  C21       20.5740   29.3170   13.9720 C.3   203  INH203      0.1550
     22  C22       20.7850   29.0850   12.4680 C.3   203  INH203      0.1410
     23  N3        20.1780   27.7880   12.0740 N.3   203  INH203     -0.2040
     24  S1        18.5950   27.8470   11.6580 S.O2  203  INH203      0.2430
     25  O7        17.9090   27.2960   12.8040 O.2   203  INH203     -0.2060
     26  O6        18.2250   29.2120   11.4700 O.2   203  INH203     -0.2060
     27  C27       18.2710   26.9860   10.3240 C.ar  203  INH203      0.0740
     28  C33       18.3830   27.5730    9.0650 C.ar  203  INH203      0.0270
     29  C32       18.0860   26.8560    7.9020 C.ar  203  INH203      0.0380
     30  C30       17.6660   25.5210    7.9780 C.ar  203  INH203      0.0680
     31  C29       17.5590   24.9230    9.2320 C.ar  203  INH203      0.0380
     32  C28       17.8620   25.6480   10.3950 C.ar  203  INH203      0.0270
     33  O8        17.3660   24.7940    6.8480 O.3   203  INH203     -0.3560
     34  C31       16.1410   24.0700    6.7080 C.3   203  INH203      0.2100
     35  C23       20.9840   27.0600   11.0690 C.3   203  INH203      0.1110
     36  C24       21.7380   25.8870   11.7070 C.3   203  INH203     -0.0090
     37  C26       21.4070   24.5420   11.0530 C.3   203  INH203      0.0110
     38  C25       23.2390   26.1470   11.6630 C.3   203  INH203      0.0110
     39  O5        21.5770   28.6100   14.7120 O.3   203  INH203     -0.3920
     40  H21       21.9860   27.9630   14.1510 H     203  INH203      0.2100
     41  C14       19.6670   31.6710   13.4180 C.3   203  INH203      0.0660
     42  C15       18.4380   32.0720   14.2240 C.ar  203  INH203     -0.0560
     43  C20       17.9560   33.3880   14.1820 C.ar  203  INH203      0.0070
     44  C19       16.8520   33.7690   14.9360 C.ar  203  INH203      0.0010
     45  C18       16.2060   32.8350   15.7380 C.ar  203  INH203      0.0000
     46  C17       16.6840   31.5340   15.7880 C.ar  203  INH203      0.0010
     47  C16       17.7880   31.1470   15.0310 C.ar  203  INH203      0.0070
@<TRIPOS>BOND
     1    34    33    1
     2    33    30    1
     3    29    30   ar
     4    29    28   ar
     5    30    31   ar
     6    28    27   ar
     7    31    32   ar
     8    27    32   ar
     9    27    24    1
    10    37    36    1
    11    35    36    1
    12    35    23    1
    13    26    24    2
    14    24    23    1
    15    24    25    2
    16    38    36    1
    17    23    22    1
    18    22    21    1
    19     5     2    1
    20    41    42    1
    21    41     1    1
    22    21     1    1
    23    21    39    1
    24     2     1    1
    25     2     3   am
    26    40    39    1
    27    43    42   ar
    28    43    44   ar
    29    42    47   ar
    30     4     3    2
    31    44    45   ar
    32     3     6    1
    33    47    46   ar
    34    45    46   ar
    35    11     6    1
    36    11     9    1
    37     6     7    1
    38     9    12    1
    39     9     8   am
    40     7     8    1
    41    12    17   ar
    42    12    13   ar
    43    17    16   ar
    44     8    10    2
    45    13    14   ar
    46    16    15   ar
    47    14    15   ar
    48    15    18    1
    49    20    18    1
    50    18    19    2
