@<TRIPOS>MOLECULE
/tmp/ewbell/vina_2i0a_2i0a_lig/vina/vina2.pdbqt
 47 50 0 0 0
SMALL
GASTEIGER

@<TRIPOS>ATOM
      1  C13       20.5160   30.3860   13.9910 C.3   203  INH203      0.1180
      2  N2        21.7180   31.1630   13.6740 N.am  203  INH203     -0.3510
      3  C12       22.3190   31.9890   14.5350 C.2   203  INH203      0.2490
      4  O4        23.3330   32.6360   14.2910 O.2   203  INH203     -0.2710
      5  H11       22.1120   31.0680   12.7590 H     203  INH203      0.1630
      6  C11       21.7060   32.0940   15.8980 C.3   203  INH203      0.2430
      7  O3        22.5950   32.5300   16.9320 O.3   203  INH203     -0.2870
      8  C9        21.9350   33.5730   17.6750 C.2   203  INH203      0.3680
      9  N1        20.8210   33.9040   17.0540 N.am  203  INH203     -0.2910
     10  O2        22.3880   34.0020   18.7240 O.2   203  INH203     -0.2380
     11  C10       20.6460   33.2020   15.7970 C.3   203  INH203      0.1770
     12  C8        19.8160   34.7510   17.5540 C.ar  203  INH203      0.0390
     13  C5        20.0000   36.1330   17.4770 C.ar  203  INH203      0.0310
     14  C4        19.0140   36.9920   17.9240 C.ar  203  INH203      0.0170
     15  C3        17.8190   36.4990   18.4470 C.ar  203  INH203      0.0090
     16  C6        17.6180   35.1270   18.5100 C.ar  203  INH203      0.0170
     17  C7        18.6040   34.2560   18.0550 C.ar  203  INH203      0.0310
     18  C1        16.7500   37.4420   18.9180 C.2   203  INH203      0.1550
     19  O1        17.0380   38.4140   19.6140 O.2   203  INH203     -0.2930
     20  C2        15.3350   37.1490   18.5380 C.3   203  INH203      0.0960
     21  C21       20.5980   28.9090   13.6060 C.3   203  INH203      0.1550
     22  C22       21.2200   28.7450   12.2120 C.3   203  INH203      0.1410
     23  N3        20.5020   27.6800   11.4680 N.3   203  INH203     -0.2040
     24  S1        21.2820   26.2430   11.3630 S.O2  203  INH203      0.2430
     25  O7        22.4750   26.4320   12.1550 O.2   203  INH203     -0.2060
     26  O6        20.4570   25.2350   11.9430 O.2   203  INH203     -0.2060
     27  C27       21.6600   25.8520    9.8360 C.ar  203  INH203      0.0740
     28  C33       20.6840   25.8750    8.8430 C.ar  203  INH203      0.0270
     29  C32       20.9820   25.5190    7.5240 C.ar  203  INH203      0.0380
     30  C30       22.2800   25.1290    7.1700 C.ar  203  INH203      0.0680
     31  C29       23.2670   25.1120    8.1540 C.ar  203  INH203      0.0380
     32  C28       22.9600   25.4740    9.4770 C.ar  203  INH203      0.0270
     33  O8        22.6000   24.7720    5.8800 O.3   203  INH203     -0.3560
     34  C31       21.6410   24.7920    4.8200 C.3   203  INH203      0.2100
     35  C23       19.1000   27.5150   11.9140 C.3   203  INH203      0.1110
     36  C24       18.1240   28.1720   10.9320 C.3   203  INH203     -0.0090
     37  C26       17.4650   27.1650    9.9850 C.3   203  INH203      0.0110
     38  C25       17.0660   28.9580   11.6970 C.3   203  INH203      0.0110
     39  O5        21.3630   28.1660   14.5630 O.3   203  INH203     -0.3920
     40  H21       21.2550   28.5520   15.4240 H     203  INH203      0.2100
     41  C14       19.4210   31.1800   13.2520 C.3   203  INH203      0.0660
     42  C15       18.2990   31.5210   14.2250 C.ar  203  INH203     -0.0560
     43  C20       17.7430   32.8080   14.2490 C.ar  203  INH203      0.0070
     44  C19       16.7380   33.1350   15.1520 C.ar  203  INH203      0.0010
     45  C18       16.2660   32.1750   16.0400 C.ar  203  INH203      0.0000
     46  C17       16.8190   30.9030   16.0250 C.ar  203  INH203      0.0010
     47  C16       17.8240   30.5700   15.1190 C.ar  203  INH203      0.0070
@<TRIPOS>BOND
     1    34    33    1
     2    33    30    1
     3    30    29   ar
     4    30    31   ar
     5    29    28   ar
     6    31    32   ar
     7    28    27   ar
     8    32    27   ar
     9    27    24    1
    10    37    36    1
    11    36    38    1
    12    36    35    1
    13    24    23    1
    14    24    26    2
    15    24    25    2
    16    23    35    1
    17    23    22    1
    18    22    21    1
    19     5     2    1
    20    41     1    1
    21    41    42    1
    22    21     1    1
    23    21    39    1
    24     2     1    1
    25     2     3   am
    26    42    43   ar
    27    42    47   ar
    28    43    44   ar
    29     4     3    2
    30     3     6    1
    31    39    40    1
    32    47    46   ar
    33    44    45   ar
    34    11     6    1
    35    11     9    1
    36     6     7    1
    37    46    45   ar
    38     7     8    1
    39     9    12    1
    40     9     8   am
    41    13    12   ar
    42    13    14   ar
    43    12    17   ar
    44     8    10    2
    45    14    15   ar
    46    17    16   ar
    47    15    16   ar
    48    15    18    1
    49    20    18    1
    50    18    19    2
