@<TRIPOS>MOLECULE
./ligand/2nta_lig.pdb
 29 31 0 0 0
SMALL
GASTEIGER

@<TRIPOS>ATOM
      1  C1        29.3880  -32.5530    1.0090 C.ar  300  INH300     -0.0617
      2  C2        30.6440  -33.1950    0.8630 C.ar  300  INH300     -0.0612
      3  C3        31.6890  -32.5660    0.1400 C.ar  300  INH300     -0.0535
      4  C4        31.5080  -31.2850   -0.4540 C.ar  300  INH300     -0.0098
      5  C5        30.2240  -30.6420   -0.2950 C.ar  300  INH300     -0.0535
      6  C6        29.1760  -31.2740    0.4320 C.ar  300  INH300     -0.0612
      7  C7        32.6380  -30.6330   -1.1980 C.ar  300  INH300      0.0395
      8  N1        34.4570  -28.5230   -3.7480 N.pl3 300  INH300     -0.1799
      9  N2        35.2790  -27.4970   -5.8570 N.am  300  INH300     -0.1714
     10  C8        34.0330  -29.3960   -2.6930 C.ar  300  INH300      0.0789
     11  C9        32.6840  -29.8010   -2.3520 C.ar  300  INH300      0.0783
     12  C10       34.9290  -29.9600   -1.7990 C.ar  300  INH300      0.0004
     13  S1        34.2240  -30.9190   -0.5970 S.2   300  INH300     -0.0932
     14  C11       34.4820  -27.0380   -3.6310 C.3   300  INH300      0.1139
     15  C12       34.9910  -26.4730   -4.9340 C.2   300  INH300      0.2522
     16  O1        35.1320  -25.2890   -5.1600 O.2   300  INH300     -0.2724
     17  S2        34.9860  -29.0670   -5.2940 S.O2  300  INH300      0.1291
     18  O2        36.2560  -29.7620   -5.1660 O.2   300  INH300     -0.1346
     19  O3        33.8730  -29.6300   -6.0370 O.2   300  INH300     -0.1346
     20 Cl1        31.3030  -29.3360   -3.2630 Cl    300  INH300     -0.0804
     21  H1        28.5910  -33.0390    1.5610 H     300  INH300      0.0618
     22  H2        30.8060  -34.1710    1.3060 H     300  INH300      0.0618
     23  H3        32.6430  -33.0700    0.0380 H     300  INH300      0.0624
     24  H4        30.0560  -29.6660   -0.7350 H     300  INH300      0.0624
     25  H5        28.2180  -30.7790    0.5450 H     300  INH300      0.0618
     26  H6        35.6300  -27.3110   -6.7750 H     300  INH300      0.1779
     27  H7        36.0040  -29.7980   -1.8650 H     300  INH300      0.0713
     28  H8        35.1500  -26.7400   -2.8090 H     300  INH300      0.0579
     29  H9        33.4670  -26.6630   -3.4330 H     300  INH300      0.0579
@<TRIPOS>BOND
     1     1     2   ar
     2     1    21    1
     3     1     6   ar
     4     2     3   ar
     5     2    22    1
     6     3     4   ar
     7     3    23    1
     8     4     7    1
     9     4     5   ar
    10     5     6   ar
    11     5    24    1
    12     6    25    1
    13     7    11   ar
    14     7    13   ar
    15     8    14    1
    16     8    17    1
    17     8    10    1
    18     9    26    1
    19     9    17    1
    20     9    15   am
    21    10    12   ar
    22    10    11   ar
    23    11    20    1
    24    12    13   ar
    25    12    27    1
    26    14    15    1
    27    14    29    1
    28    14    28    1
    29    15    16    2
    30    17    19    2
    31    17    18    2
