@<TRIPOS>MOLECULE
/tmp/ewbell/vina_2nta_2nta_lig/vina/vina3.pdbqt
 21 23 0 0 0
SMALL
GASTEIGER

@<TRIPOS>ATOM
      1  C7        33.7000  -29.9440   -1.9560 C.ar  300  INH300      0.0390
      2  C8        32.3740  -31.1380   -0.3660 C.ar  300  INH300      0.0760
      3  C9        32.3910  -30.3730   -1.5960 C.ar  300  INH300      0.0800
      4  C10       33.6580  -31.2250    0.1470 C.ar  300  INH300      0.0820
      5  S1        34.8450  -30.4520   -0.7770 S.2   300  INH300     -0.0970
      6 Cl1        30.9740  -30.0130   -2.5010 Cl    300  INH300     -0.0800
      7  N1        31.2550  -31.7710    0.2690 N.pl3 300  INH300     -0.2480
      8  C11       30.9160  -33.2120    0.0990 C.3   300  INH300      0.2470
      9  C12       29.6880  -33.5060    0.9240 C.2   300  INH300      0.2510
     10  N2        29.2320  -32.3530    1.5900 N.am  300  INH300     -0.2350
     11  O1        29.1580  -34.5940    1.0020 O.2   300  INH300     -0.2710
     12  H6        28.4290  -32.3570    2.1870 H     300  INH300      0.1830
     13  S2        30.1480  -30.9560    1.3060 S.O2  300  INH300      0.3280
     14  O3        29.3440  -30.0180    0.5440 O.2   300  INH300     -0.1820
     15  O2        30.8140  -30.5750    2.5400 O.2   300  INH300     -0.1820
     16  C4        34.2320  -29.1560   -3.1170 C.ar  300  INH300     -0.0170
     17  C3        33.7630  -27.8340   -3.3580 C.ar  300  INH300      0.0130
     18  C2        34.2640  -27.0610   -4.4370 C.ar  300  INH300      0.0010
     19  C1        35.2500  -27.5970   -5.3040 C.ar  300  INH300      0.0000
     20  C6        35.7410  -28.9110   -5.0890 C.ar  300  INH300      0.0010
     21  C5        35.2390  -29.6880   -4.0070 C.ar  300  INH300      0.0130
@<TRIPOS>BOND
     1    19    20   ar
     2    19    18   ar
     3    20    21   ar
     4    18    17   ar
     5    21    16   ar
     6    17    16   ar
     7    16     1    1
     8     6     3    1
     9     1     3   ar
    10     1     5   ar
    11     3     2   ar
    12     5     4   ar
    13     2     4   ar
    14     2     7    1
    15     8     7    1
    16     8     9    1
    17     7    13    1
    18    14    13    2
    19     9    11    2
    20     9    10   am
    21    13    10    1
    22    13    15    2
    23    10    12    1
