@<TRIPOS>MOLECULE
/tmp/ewbell/vina_2nta_2nta_lig/vina/vina2.pdbqt
 21 23 0 0 0
SMALL
GASTEIGER

@<TRIPOS>ATOM
      1  C7        32.3410  -31.5340    0.2490 C.ar  300  INH300      0.0390
      2  C8        31.3350  -32.9240    1.9130 C.ar  300  INH300      0.0760
      3  C9        31.1770  -32.2570    0.6360 C.ar  300  INH300      0.0800
      4  C10       32.5910  -32.6520    2.4290 C.ar  300  INH300      0.0820
      5  S1        33.5590  -31.6630    1.4570 S.2   300  INH300     -0.0970
      6 Cl1        29.7300  -32.3220   -0.2880 Cl    300  INH300     -0.0800
      7  N1        30.4030  -33.7800    2.5870 N.pl3 300  INH300     -0.2480
      8  C11       29.5420  -33.3330    3.7190 C.3   300  INH300      0.2470
      9  C12       28.6970  -34.5040    4.1560 C.2   300  INH300      0.2510
     10  N2        28.9720  -35.6490    3.3840 N.am  300  INH300     -0.2350
     11  O1        27.8860  -34.4660    5.0570 O.2   300  INH300     -0.2710
     12  H6        28.5040  -36.5210    3.5290 H     300  INH300      0.1830
     13  S2        30.1560  -35.4370    2.1910 S.O2  300  INH300      0.3280
     14  O3        31.3250  -36.2190    2.5490 O.2   300  INH300     -0.1820
     15  O2        29.5270  -35.5450    0.8850 O.2   300  INH300     -0.1820
     16  C4        32.6750  -30.7100   -0.9600 C.ar  300  INH300     -0.0170
     17  C3        31.6350  -30.1330   -1.7410 C.ar  300  INH300      0.0130
     18  C2        31.9250  -29.3350   -2.8780 C.ar  300  INH300      0.0010
     19  C1        33.2690  -29.0950   -3.2590 C.ar  300  INH300      0.0000
     20  C6        34.3300  -29.6530   -2.5000 C.ar  300  INH300      0.0010
     21  C5        34.0410  -30.4540   -1.3600 C.ar  300  INH300      0.0130
@<TRIPOS>BOND
     1    19    18   ar
     2    19    20   ar
     3    18    17   ar
     4    20    21   ar
     5    17    16   ar
     6    21    16   ar
     7    16     1    1
     8     6     3    1
     9     1     3   ar
    10     1     5   ar
    11     3     2   ar
    12    15    13    2
    13     5     4   ar
    14     2     4   ar
    15     2     7    1
    16    13    14    2
    17    13     7    1
    18    13    10    1
    19     7     8    1
    20    10    12    1
    21    10     9   am
    22     8     9    1
    23     9    11    2
