@<TRIPOS>MOLECULE
/tmp/ewbell/vina_2nta_2nta_lig/vina/vina1.pdbqt
 21 23 0 0 0
SMALL
GASTEIGER

@<TRIPOS>ATOM
      1  C7        32.3450  -30.7230   -1.2100 C.ar  300  INH300      0.0390
      2  C8        33.0380  -29.2740   -2.9790 C.ar  300  INH300      0.0760
      3  C9        33.4380  -30.0470   -1.8210 C.ar  300  INH300      0.0800
      4  C10       31.6690  -29.3860   -3.1640 C.ar  300  INH300      0.0820
      5  S1        30.8780  -30.3670   -2.0350 S.2   300  INH300     -0.0970
      6 Cl1        35.0570  -30.1150   -1.2490 Cl    300  INH300     -0.0800
      7  N1        33.8670  -28.5140   -3.8690 N.pl3 300  INH300     -0.2480
      8  C11       33.9840  -27.0300   -3.8230 C.3   300  INH300      0.2470
      9  C12       34.9490  -26.6020   -4.9010 C.2   300  INH300      0.2510
     10  N2        35.4350  -27.7100   -5.6210 N.am  300  INH300     -0.2350
     11  O1        35.2630  -25.4520   -5.1230 O.2   300  INH300     -0.2710
     12  H6        36.0880  -27.6190   -6.3730 H     300  INH300      0.1830
     13  S2        34.8300  -29.2100   -5.1150 S.O2  300  INH300      0.3280
     14  O3        33.9840  -29.7500   -6.1630 O.2   300  INH300     -0.1820
     15  O2        35.9170  -29.9780   -4.5300 O.2   300  INH300     -0.1820
     16  C4        32.2440  -31.6370   -0.0220 C.ar  300  INH300     -0.0170
     17  C3        33.1780  -31.5240    1.0460 C.ar  300  INH300      0.0130
     18  C2        33.0940  -32.3630    2.1870 C.ar  300  INH300      0.0010
     19  C1        32.0690  -33.3380    2.2850 C.ar  300  INH300      0.0000
     20  C6        31.1210  -33.4730    1.2380 C.ar  300  INH300      0.0010
     21  C5        31.2040  -32.6330    0.0920 C.ar  300  INH300      0.0130
@<TRIPOS>BOND
     1    12    10    1
     2    14    13    2
     3    10    13    1
     4    10     9   am
     5    11     9    2
     6    13    15    2
     7    13     7    1
     8     9     8    1
     9     7     8    1
    10     7     2    1
    11     4     2   ar
    12     4     5   ar
    13     2     3   ar
    14     5     1   ar
    15     3     6    1
    16     3     1   ar
    17     1    16    1
    18    16    21   ar
    19    16    17   ar
    20    21    20   ar
    21    17    18   ar
    22    20    19   ar
    23    18    19   ar
