@<TRIPOS>MOLECULE
/tmp/ewbell/vina_2nta_2nta_lig/vina/vina5.pdbqt
 21 23 0 0 0
SMALL
GASTEIGER

@<TRIPOS>ATOM
      1  C7        31.0520  -31.1910   -0.6840 C.ar  300  INH300      0.0390
      2  C8        29.8650  -32.4730    0.9460 C.ar  300  INH300      0.0760
      3  C9        31.1510  -31.9780    0.4980 C.ar  300  INH300      0.0800
      4  C10       28.8740  -32.0560    0.0710 C.ar  300  INH300      0.0820
      5  S1        29.4210  -31.1120   -1.2220 S.2   300  INH300     -0.0970
      6 Cl1        32.6270  -32.3290    1.3050 Cl    300  INH300     -0.0800
      7  N1        29.5710  -33.2450    2.1180 N.pl3 300  INH300     -0.2480
      8  C11       28.8240  -32.7130    3.2920 C.3   300  INH300      0.2470
      9  C12       28.7070  -33.8170    4.3130 C.2   300  INH300      0.2510
     10  N2        29.3320  -34.9960    3.8650 N.am  300  INH300     -0.2350
     11  O1        28.1490  -33.7040    5.3850 O.2   300  INH300     -0.2710
     12  H6        29.3530  -35.8350    4.4100 H     300  INH300      0.1830
     13  S2        30.0460  -34.8870    2.3330 S.O2  300  INH300      0.3280
     14  O3        31.4870  -34.9780    2.4810 O.2   300  INH300     -0.1820
     15  O2        29.3110  -35.7390    1.4130 O.2   300  INH300     -0.1820
     16  C4        32.0710  -30.4620   -1.5130 C.ar  300  INH300     -0.0170
     17  C3        31.6510  -29.6210   -2.5820 C.ar  300  INH300      0.0130
     18  C2        32.5920  -28.9080   -3.3680 C.ar  300  INH300      0.0010
     19  C1        33.9800  -29.0200   -3.1000 C.ar  300  INH300      0.0000
     20  C6        34.4310  -29.8480   -2.0390 C.ar  300  INH300      0.0010
     21  C5        33.4880  -30.5650   -1.2500 C.ar  300  INH300      0.0130
@<TRIPOS>BOND
     1    18    19   ar
     2    18    17   ar
     3    19    20   ar
     4    17    16   ar
     5    20    21   ar
     6    16    21   ar
     7    16     1    1
     8     5     1   ar
     9     5     4   ar
    10     1     3   ar
    11     4     2   ar
    12     3     2   ar
    13     3     6    1
    14     2     7    1
    15    15    13    2
    16     7    13    1
    17     7     8    1
    18    13    14    2
    19    13    10    1
    20     8     9    1
    21    10     9   am
    22    10    12    1
    23     9    11    2
