@<TRIPOS>MOLECULE
/tmp/ewbell/vina_2nta_2nta_lig/vina/vina4.pdbqt
 21 23 0 0 0
SMALL
GASTEIGER

@<TRIPOS>ATOM
      1  C7        31.0450  -31.0040   -1.0550 C.ar  300  INH300      0.0390
      2  C8        29.7740  -32.3480    0.4580 C.ar  300  INH300      0.0760
      3  C9        31.0890  -31.8900    0.0580 C.ar  300  INH300      0.0800
      4  C10       28.8160  -31.8050   -0.3840 C.ar  300  INH300      0.0820
      5  S1        29.4250  -30.7900   -1.5910 S.2   300  INH300     -0.0970
      6 Cl1        32.5370  -32.3880    0.8380 Cl    300  INH300     -0.0800
      7  N1        29.4270  -33.1960    1.5600 N.pl3 300  INH300     -0.2480
      8  C11       29.6460  -34.6700    1.5680 C.3   300  INH300      0.2470
      9  C12       29.1660  -35.2090    2.8930 C.2   300  INH300      0.2510
     10  N2        28.6570  -34.1800    3.7080 N.am  300  INH300     -0.2350
     11  O1        29.2090  -36.3780    3.2150 O.2   300  INH300     -0.2710
     12  H6        28.2960  -34.3500    4.6260 H     300  INH300      0.1830
     13  S2        28.7040  -32.6340    3.0180 S.O2  300  INH300      0.3280
     14  O3        27.3440  -32.1930    2.7680 O.2   300  INH300     -0.1820
     15  O2        29.6540  -31.8200    3.7600 O.2   300  INH300     -0.1820
     16  C4        32.1090  -30.2670   -1.8170 C.ar  300  INH300     -0.0170
     17  C3        31.7490  -29.3820   -2.8710 C.ar  300  INH300      0.0130
     18  C2        32.7340  -28.6610   -3.5940 C.ar  300  INH300      0.0010
     19  C1        34.1080  -28.8100   -3.2750 C.ar  300  INH300      0.0000
     20  C6        34.5000  -29.6830   -2.2270 C.ar  300  INH300      0.0010
     21  C5        33.5130  -30.4070   -1.5010 C.ar  300  INH300      0.0130
@<TRIPOS>BOND
     1    18    19   ar
     2    18    17   ar
     3    19    20   ar
     4    17    16   ar
     5    20    21   ar
     6    16    21   ar
     7    16     1    1
     8     5     1   ar
     9     5     4   ar
    10     1     3   ar
    11     4     2   ar
    12     3     2   ar
    13     3     6    1
    14     2     7    1
    15     7     8    1
    16     7    13    1
    17     8     9    1
    18    14    13    2
    19     9    11    2
    20     9    10   am
    21    13    10    1
    22    13    15    2
    23    10    12    1
