@<TRIPOS>MOLECULE
./ligand/3d51_lig.pdb
 26 26 0 0 0
SMALL
GASTEIGER

@<TRIPOS>ATOM
      1  C1        30.8330   65.8530    9.7600 C.3   1020  INH1020     0.1582
      2  N1        30.7250   65.8020   11.0680 N.4   1020  INH1020    -0.1780
      3  C2        31.9830   65.2300    9.0090 C.3   1020  INH1020     0.1199
      4  N2        29.8530   66.4580    9.0170 N.3   1020  INH1020    -0.2849
      5  O1        29.6260   66.4080   11.6110 O.3   1020  INH1020    -0.3131
      6  O2        33.0870   64.8900    9.8330 O.3   1020  INH1020    -0.3858
      7  C3        32.4080   66.1970    7.9130 C.3   1020  INH1020     0.1115
      8  O3        33.5370   65.5880    7.2760 O.3   1020  INH1020    -0.3865
      9  C4        31.2630   66.2720    6.9030 C.3   1020  INH1020     0.1010
     10  O4        31.5320   67.2240    5.8920 O.3   1020  INH1020    -0.3875
     11  C5        29.9020   66.6560    7.5430 C.3   1020  INH1020     0.0610
     12  C6        28.7560   65.9480    6.8330 C.3   1020  INH1020     0.0621
     13  O5        27.5330   66.3900    7.4590 O.3   1020  INH1020    -0.3934
     14  H1        31.6220   64.3030    8.5400 H     1020  INH1020     0.0654
     15  H2        29.0200   66.8010    9.5160 H     1020  INH1020     0.1243
     16  H3        29.6460   66.3130   12.5560 H     1020  INH1020     0.2363
     17  H4        33.4220   65.6740   10.2530 H     1020  INH1020     0.2100
     18  H5        32.6540   67.1910    8.3140 H     1020  INH1020     0.0647
     19  H6        33.8480   66.1510    6.5770 H     1020  INH1020     0.2100
     20  H7        31.1620   65.2800    6.4390 H     1020  INH1020     0.0636
     21  H8        32.3610   67.0190    5.4770 H     1020  INH1020     0.2100
     22  H9        29.7680   67.7340    7.3720 H     1020  INH1020     0.0510
     23  H10       28.7510   66.2140    5.7660 H     1020  INH1020     0.0573
     24  H11       28.8620   64.8580    6.9390 H     1020  INH1020     0.0573
     25  H12       27.4500   67.3320    7.3620 H     1020  INH1020     0.2095
     26  H13       31.4300   65.3310   11.6530 H     1020  INH1020     0.1559
@<TRIPOS>BOND
     1    21    10    1
     2    23    12    1
     3    10     9    1
     4    20     9    1
     5    19     8    1
     6    12    24    1
     7    12    13    1
     8    12    11    1
     9     9    11    1
    10     9     7    1
    11     8     7    1
    12    25    13    1
    13    22    11    1
    14    11     4    1
    15     7    18    1
    16     7     3    1
    17    14     3    1
    18     3     1    1
    19     3     6    1
    20     4    15    1
    21     4     1    1
    22     1     2    1
    23     6    17    1
    24     2     5    1
    25     2    26    1
    26     5    16    1
