@<TRIPOS>MOLECULE
/tmp/ewbell/vina_3d51_3d51_lig/vina/vina1.pdbqt
 20 20 0 0 0
SMALL
GASTEIGER

@<TRIPOS>ATOM
      1  C1        30.3220   65.7000    9.8800 C.3   1020  INH1020     0.7980
      2  N1        30.0120   65.5600   11.1480 N.4   1020  INH1020    -0.1030
      3  C2        31.6000   65.1630    9.2850 C.3   1020  INH1020     0.2090
      4  N2        29.4470   66.3220    9.0280 N.3   1020  INH1020    -0.3770
      5  C3        32.1520   66.2120    8.3310 C.3   1020  INH1020     0.1820
      6  C4        31.1770   66.3180    7.1580 C.3   1020  INH1020     0.1730
      7  C5        29.7180   66.6170    7.5950 C.3   1020  INH1020     0.1340
      8  H2        28.5330   66.6060    9.4070 H     1020  INH1020     0.1560
      9  H13       30.6350   65.0730   11.8090 H     1020  INH1020     0.3220
     10  O2        32.5740   64.8030   10.2530 O.3   1020  INH1020    -0.3880
     11  H4        33.1930   65.5170   10.3590 H     1020  INH1020     0.2100
     12  O1        28.8180   66.0950   11.5450 O.3   1020  INH1020    -0.2100
     13  H3        28.6860   66.9310   11.1130 H     1020  INH1020     0.2550
     14  O3        33.3900   65.6810    7.8460 O.3   1020  INH1020    -0.3900
     15  H6        33.4390   64.7540    8.0500 H     1020  INH1020     0.2100
     16  C6        28.7280   65.9220    6.6700 C.3   1020  INH1020     0.1910
     17  O5        27.6480   65.4370    7.4960 O.3   1020  INH1020    -0.3990
     18  H12       27.8650   64.5720    7.8240 H     1020  INH1020     0.2090
     19  O4        31.5630   67.3420    6.2610 O.3   1020  INH1020    -0.3910
     20  H8        30.8440   67.5310    5.6700 H     1020  INH1020     0.2100
@<TRIPOS>BOND
     1    20    19    1
     2    19     6    1
     3    16    17    1
     4    16     7    1
     5     6     7    1
     6     6     5    1
     7    17    18    1
     8     7     4    1
     9    14    15    1
    10    14     5    1
    11     5     3    1
    12     4     8    1
    13     4     1    1
    14     3     1    1
    15     3    10    1
    16     1     2    1
    17    10    11    1
    18    13    12    1
    19     2    12    1
    20     2     9    1
