@<TRIPOS>MOLECULE
/tmp/ewbell/vina_3d51_3d51_lig/vina/vina5.pdbqt
 20 20 0 0 0
SMALL
GASTEIGER

@<TRIPOS>ATOM
      1  C1        29.1540   65.4710   10.9380 C.3   1020  INH1020     0.7980
      2  N1        28.6250   65.2700   12.1230 N.4   1020  INH1020    -0.1030
      3  C2        28.4820   66.3000    9.8720 C.3   1020  INH1020     0.2090
      4  N2        30.3870   64.9490   10.6430 N.3   1020  INH1020    -0.3770
      5  C3        28.6580   65.5860    8.5400 C.3   1020  INH1020     0.1820
      6  C4        30.1480   65.6220    8.1970 C.3   1020  INH1020     0.1730
      7  C5        31.0510   65.0330    9.3140 C.3   1020  INH1020     0.1340
      8  H2        30.8910   64.4630   11.3970 H     1020  INH1020     0.1560
      9  H13       27.7130   65.6710   12.3860 H     1020  INH1020     0.3220
     10  O2        27.1100   66.5560   10.1260 O.3   1020  INH1020    -0.3880
     11  H4        26.9940   67.4720   10.3490 H     1020  INH1020     0.2100
     12  O1        29.3500   64.4990   12.9890 O.3   1020  INH1020    -0.2100
     13  H3        30.2730   64.5630   12.7740 H     1020  INH1020     0.2550
     14  O3        27.9510   66.3790    7.5790 O.3   1020  INH1020    -0.3900
     15  H6        28.3330   67.2480    7.5430 H     1020  INH1020     0.2100
     16  C6        32.3750   65.7810    9.3830 C.3   1020  INH1020     0.1910
     17  O5        32.9710   65.7080    8.0700 O.3   1020  INH1020    -0.3990
     18  H12       32.6530   66.4290    7.5380 H     1020  INH1020     0.2090
     19  O4        30.4200   64.8960    7.0140 O.3   1020  INH1020    -0.3910
     20  H8        30.6180   63.9940    7.2350 H     1020  INH1020     0.2100
@<TRIPOS>BOND
     1    19    20    1
     2    19     6    1
     3    18    17    1
     4    15    14    1
     5    14     5    1
     6    17    16    1
     7     6     5    1
     8     6     7    1
     9     5     3    1
    10     7    16    1
    11     7     4    1
    12     3    10    1
    13     3     1    1
    14    10    11    1
    15     4     1    1
    16     4     8    1
    17     1     2    1
    18     2     9    1
    19     2    12    1
    20    13    12    1
