@<TRIPOS>MOLECULE
/tmp/ewbell/vina_3d51_3d51_lig/vina/vina3.pdbqt
 20 20 0 0 0
SMALL
GASTEIGER

@<TRIPOS>ATOM
      1  C1        28.7870   65.9620    9.8300 C.3   1020  INH1020     0.7980
      2  N1        27.7330   66.1340   10.5950 N.4   1020  INH1020    -0.1030
      3  C2        29.9550   65.0960   10.2280 C.3   1020  INH1020     0.2090
      4  N2        28.8370   66.5520    8.5930 N.3   1020  INH1020    -0.3770
      5  C3        31.2340   65.8190    9.8290 C.3   1020  INH1020     0.1820
      6  C4        31.2730   65.8650    8.3020 C.3   1020  INH1020     0.1730
      7  C5        30.0050   66.5040    7.6740 C.3   1020  INH1020     0.1340
      8  H2        28.0020   67.0660    8.2770 H     1020  INH1020     0.1560
      9  H13       27.6530   65.6830   11.5170 H     1020  INH1020     0.3220
     10  O2        29.9770   64.7650   11.6080 O.3   1020  INH1020    -0.3880
     11  H4        29.0880   64.7510   11.9440 H     1020  INH1020     0.2100
     12  O1        26.7490   66.9450   10.1000 O.3   1020  INH1020    -0.2100
     13  H3        26.7860   66.9450    9.1510 H     1020  INH1020     0.2550
     14  O3        32.3070   64.9870   10.2860 O.3   1020  INH1020    -0.3900
     15  H6        32.8580   65.4800   10.8820 H     1020  INH1020     0.2100
     16  C6        29.6650   65.8320    6.3510 C.3   1020  INH1020     0.1910
     17  O5        29.9760   64.4300    6.4960 O.3   1020  INH1020    -0.3990
     18  H12       30.8990   64.2900    6.3140 H     1020  INH1020     0.2090
     19  O4        32.3860   66.6050    7.8390 O.3   1020  INH1020    -0.3910
     20  H8        32.5510   66.3910    6.9290 H     1020  INH1020     0.2100
@<TRIPOS>BOND
     1    18    17    1
     2    16    17    1
     3    16     7    1
     4    20    19    1
     5     7     6    1
     6     7     4    1
     7    19     6    1
     8     8     4    1
     9     6     5    1
    10     4     1    1
    11    13    12    1
    12     5     3    1
    13     5    14    1
    14     1     3    1
    15     1     2    1
    16    12     2    1
    17     3    10    1
    18    14    15    1
    19     2     9    1
    20    10    11    1
