@<TRIPOS>MOLECULE
/tmp/ewbell/vina_3d51_3d51_lig/vina/vina4.pdbqt
 20 20 0 0 0
SMALL
GASTEIGER

@<TRIPOS>ATOM
      1  C1        30.9570   65.2250    9.2950 C.3   1020  INH1020     0.7980
      2  N1        32.2680   65.1750    9.3430 N.4   1020  INH1020    -0.1030
      3  C2        30.1930   65.4320    8.0110 C.3   1020  INH1020     0.2090
      4  N2        30.2240   65.0460   10.4390 N.3   1020  INH1020    -0.3770
      5  C3        29.0540   66.4020    8.2930 C.3   1020  INH1020     0.1820
      6  C4        28.0760   65.6960    9.2330 C.3   1020  INH1020     0.1730
      7  C5        28.7440   65.1660   10.5300 C.3   1020  INH1020     0.1340
      8  H2        30.7360   64.8100   11.3010 H     1020  INH1020     0.1560
      9  H13       32.8470   65.2780    8.4970 H     1020  INH1020     0.3220
     10  O2        30.9940   65.8990    6.9370 O.3   1020  INH1020    -0.3880
     11  H4        30.4340   66.1740    6.2210 H     1020  INH1020     0.2100
     12  O1        32.8240   64.9770   10.5770 O.3   1020  INH1020    -0.2100
     13  H3        33.1680   65.8000   10.9050 H     1020  INH1020     0.2550
     14  O3        28.4040   66.6120    7.0350 O.3   1020  INH1020    -0.3900
     15  H6        28.3920   67.5410    6.8350 H     1020  INH1020     0.2100
     16  C6        28.0910   63.8650   10.9760 C.3   1020  INH1020     0.1910
     17  O5        27.0200   63.5890   10.0490 O.3   1020  INH1020    -0.3990
     18  H12       26.1920   63.5830   10.5140 H     1020  INH1020     0.2090
     19  O4        27.0280   66.5610    9.6260 O.3   1020  INH1020    -0.3910
     20  H8        26.2050   66.2360    9.2820 H     1020  INH1020     0.2100
@<TRIPOS>BOND
     1    11    10    1
     2    15    14    1
     3    10     3    1
     4    14     5    1
     5     3     5    1
     6     3     1    1
     7     5     6    1
     8     9     2    1
     9     6    19    1
    10     6     7    1
    11    20    19    1
    12     1     2    1
    13     1     4    1
    14     2    12    1
    15    17    18    1
    16    17    16    1
    17     4     7    1
    18     4     8    1
    19     7    16    1
    20    12    13    1
