@<TRIPOS>MOLECULE
/tmp/ewbell/vina_3d51_3d51_lig/vina/vina2.pdbqt
 20 20 0 0 0
SMALL
GASTEIGER

@<TRIPOS>ATOM
      1  C1        29.5520   66.3960    7.6410 C.3   1020  INH1020     0.7980
      2  N1        28.6840   66.5940    6.6750 N.4   1020  INH1020    -0.1030
      3  C2        31.0110   66.7570    7.5150 C.3   1020  INH1020     0.2090
      4  N2        29.1350   65.8780    8.8390 N.3   1020  INH1020    -0.3770
      5  C3        31.8290   65.6310    8.1320 C.3   1020  INH1020     0.1820
      6  C4        31.5430   65.6320    9.6340 C.3   1020  INH1020     0.1730
      7  C5        30.0320   65.5280    9.9730 C.3   1020  INH1020     0.1340
      8  H2        28.1250   65.7180    8.9630 H     1020  INH1020     0.1560
      9  H13       28.9590   67.0080    5.7730 H     1020  INH1020     0.3220
     10  O2        31.4270   67.0040    6.1810 O.3   1020  INH1020    -0.3880
     11  H4        31.6680   67.9180    6.0890 H     1020  INH1020     0.2100
     12  O1        27.3930   66.2220    6.9330 O.3   1020  INH1020    -0.2100
     13  H3        27.0490   66.7450    7.6480 H     1020  INH1020     0.2550
     14  O3        33.2000   65.9920    7.9300 O.3   1020  INH1020    -0.3900
     15  H6        33.5510   66.3630    8.7310 H     1020  INH1020     0.2100
     16  C6        29.7070   66.3280   11.2270 C.3   1020  INH1020     0.1910
     17  O5        29.3150   65.3820   12.2440 O.3   1020  INH1020    -0.3990
     18  H12       29.6820   64.5290   12.0400 H     1020  INH1020     0.2090
     19  O4        32.1910   64.5530   10.2800 O.3   1020  INH1020    -0.3910
     20  H8        31.7390   64.3530   11.0910 H     1020  INH1020     0.2100
@<TRIPOS>BOND
     1     9     2    1
     2    11    10    1
     3    10     3    1
     4     2    12    1
     5     2     1    1
     6    12    13    1
     7     3     1    1
     8     3     5    1
     9     1     4    1
    10    14     5    1
    11    14    15    1
    12     5     6    1
    13     4     8    1
    14     4     7    1
    15     6     7    1
    16     6    19    1
    17     7    16    1
    18    19    20    1
    19    16    17    1
    20    18    17    1
