@<TRIPOS>MOLECULE
./ligand/2b3f_lig.pdb
 24 24 0 0 0
SMALL
GASTEIGER

@<TRIPOS>ATOM
      1  C1         8.5860   64.9200   21.4200 C.3   395  INH395      0.1141
      2  C2         8.9340   66.1690   20.6080 C.3   395  INH395      0.1119
      3  C3         9.0700   65.0470   22.8580 C.3   395  INH395      0.1339
      4  C4        10.4230   66.5170   20.8490 C.3   395  INH395      0.1130
      5  C5        10.5520   65.4380   22.9320 C.3   395  INH395      0.1854
      6  C6        10.9160   67.7700   20.1070 C.3   395  INH395      0.0730
      7  O1        10.7110   66.6690   22.2180 O.3   395  INH395     -0.3407
      8  O2         7.1810   64.7150   21.3950 O.3   395  INH395     -0.3864
      9  O3         8.0650   67.1920   21.0160 O.3   395  INH395     -0.3865
     10  O4         8.8700   63.8300   23.5950 O.3   395  INH395     -0.3841
     11  O5        10.9640   65.6180   24.2530 O.3   395  INH395     -0.3649
     12  O6        10.3860   68.9250   20.6850 O.3   395  INH395     -0.3924
     13  H1         9.0940   64.0560   20.9670 H     395  INH395      0.0648
     14  H2         8.8070   66.0170   19.5260 H     395  INH395      0.0647
     15  H3         8.4670   65.8470   23.3120 H     395  INH395      0.0671
     16  H4        10.9630   65.6530   20.4350 H     395  INH395      0.0647
     17  H5        11.1640   64.6350   22.4950 H     395  INH395      0.0935
     18  H6        12.0140   67.8120   20.1620 H     395  INH395      0.0584
     19  H7        10.5860   67.7140   19.0590 H     395  INH395      0.0584
     20  H8         6.8510   64.6690   22.2850 H     395  INH395      0.2100
     21  H9         7.8690   67.0910   21.9400 H     395  INH395      0.2100
     22  H10        8.8260   63.0970   22.9920 H     395  INH395      0.2101
     23  H11       11.9130   65.6590   24.2870 H     395  INH395      0.2126
     24  H12       10.2660   68.7870   21.6170 H     395  INH395      0.2095
@<TRIPOS>BOND
     1     1    13    1
     2     1     8    1
     3     1     3    1
     4     1     2    1
     5     2    14    1
     6     2     9    1
     7     2     4    1
     8     3     5    1
     9     3    15    1
    10     3    10    1
    11     4    16    1
    12     4     7    1
    13     4     6    1
    14     5     7    1
    15     5    17    1
    16     5    11    1
    17     6    19    1
    18     6    18    1
    19     6    12    1
    20     8    20    1
    21     9    21    1
    22    10    22    1
    23    11    23    1
    24    12    24    1
