@<TRIPOS>MOLECULE
/tmp/ewbell/vina_2b3f_2b3f_lig/vina/vina3.pdbqt
 17 17 0 0 0
SMALL
GASTEIGER

@<TRIPOS>ATOM
      1  C1         9.4650   75.1990   18.3130 C.3   395  INH395      0.1830
      2  C2        10.5580   75.7400   17.3900 C.3   395  INH395      0.1800
      3  C3         8.5810   74.1940   17.5880 C.3   395  INH395      0.2040
      4  C4         9.9080   76.1710   16.0520 C.3   395  INH395      0.1790
      5  C5         8.0480   74.7500   16.2610 C.3   395  INH395      0.2880
      6  O1         9.1780   75.1220   15.4630 O.3   395  INH395     -0.3490
      7  C6        10.8940   76.7220   15.0090 C.3   395  INH395      0.1980
      8  O6        11.6030   75.6820   14.4050 O.3   395  INH395     -0.3980
      9  H12       11.9700   75.9840   13.5830 H     395  INH395      0.2090
     10  O3        11.5120   74.7250   17.2270 O.3   395  INH395     -0.3900
     11  H9        11.6890   74.3190   18.0680 H     395  INH395      0.2100
     12  O2        10.0620   74.5930   19.4500 O.3   395  INH395     -0.3900
     13  H8         9.5680   74.8220   20.2290 H     395  INH395      0.2100
     14  O5         7.2970   73.7950   15.5750 O.3   395  INH395     -0.3690
     15  H11        7.5900   73.7490   14.6720 H     395  INH395      0.2120
     16  O4         7.4710   73.7790   18.4010 O.3   395  INH395     -0.3880
     17  H10        6.6570   74.0000   17.9630 H     395  INH395      0.2100
@<TRIPOS>BOND
     1     9     8    1
     2     8     7    1
     3    15    14    1
     4     7     4    1
     5     6     4    1
     6     6     5    1
     7    14     5    1
     8     4     2    1
     9     5     3    1
    10    10     2    1
    11    10    11    1
    12     2     1    1
    13     3     1    1
    14     3    16    1
    15    17    16    1
    16     1    12    1
    17    12    13    1
