@<TRIPOS>MOLECULE
/tmp/ewbell/vina_2b3f_2b3f_lig/vina/vina2.pdbqt
 17 17 0 0 0
SMALL
GASTEIGER

@<TRIPOS>ATOM
      1  C1        10.8380   76.3320   17.6580 C.3   395  INH395      0.1830
      2  C2         9.9480   76.1750   16.4240 C.3   395  INH395      0.1800
      3  C3        11.0710   74.9920   18.3420 C.3   395  INH395      0.2040
      4  C4         8.7110   75.3280   16.8100 C.3   395  INH395      0.1790
      5  C5         9.7550   74.2540   18.6200 C.3   395  INH395      0.2880
      6  O1         9.0770   74.0900   17.3690 O.3   395  INH395     -0.3490
      7  C6         7.7270   75.0690   15.6580 C.3   395  INH395      0.1980
      8  O6         7.3830   73.7170   15.6000 O.3   395  INH395     -0.3980
      9  H12        6.4800   73.6310   15.3200 H     395  INH395      0.2090
     10  O3        10.7230   75.5760   15.4190 O.3   395  INH395     -0.3900
     11  H9        10.1530   75.2420   14.7360 H     395  INH395      0.2100
     12  O2        12.0800   76.9060   17.2760 O.3   395  INH395     -0.3900
     13  H8        12.7260   76.7440   17.9540 H     395  INH395      0.2100
     14  O5         9.9860   72.9990   19.1840 O.3   395  INH395     -0.3690
     15  H11       10.2060   73.0990   20.1030 H     395  INH395      0.2120
     16  O4        11.7920   75.1430   19.5750 O.3   395  INH395     -0.3880
     17  H10       12.1420   74.3020   19.8440 H     395  INH395      0.2100
@<TRIPOS>BOND
     1    11    10    1
     2     9     8    1
     3    10     2    1
     4     8     7    1
     5     7     4    1
     6     2     4    1
     7     2     1    1
     8     4     6    1
     9    12     1    1
    10    12    13    1
    11     6     5    1
    12     1     3    1
    13     3     5    1
    14     3    16    1
    15     5    14    1
    16    14    15    1
    17    16    17    1
