@<TRIPOS>MOLECULE
/tmp/ewbell/vina_2b3f_2b3f_lig/vina/vina1.pdbqt
 17 17 0 0 0
SMALL
GASTEIGER

@<TRIPOS>ATOM
      1  C1         8.6930   64.9630   21.3410 C.3   395  INH395      0.1830
      2  C2         9.0280   66.2260   20.5450 C.3   395  INH395      0.1800
      3  C3         9.1220   65.1000   22.7950 C.3   395  INH395      0.2040
      4  C4        10.4950   66.6220   20.8400 C.3   395  INH395      0.1790
      5  C5        10.5860   65.5400   22.9230 C.3   395  INH395      0.2880
      6  O1        10.7290   66.7780   22.2190 O.3   395  INH395     -0.3490
      7  C6        10.9720   67.8940   20.1190 C.3   395  INH395      0.1980
      8  O6        10.3940   69.0290   20.6900 O.3   395  INH395     -0.3980
      9  H12       10.3160   69.7100   20.0340 H     395  INH395      0.2090
     10  O3         8.1110   67.2180   20.9250 O.3   395  INH395     -0.3900
     11  H9         7.4470   66.8370   21.4870 H     395  INH395      0.2100
     12  O2         7.2980   64.7110   21.2650 O.3   395  INH395     -0.3900
     13  H8         7.0940   63.9100   21.7340 H     395  INH395      0.2100
     14  O5        10.9450   65.7280   24.2580 O.3   395  INH395     -0.3690
     15  H11       11.3740   64.9450   24.5850 H     395  INH395      0.2120
     16  O4         8.9360   63.8740   23.5210 O.3   395  INH395     -0.3880
     17  H10        8.4890   63.2430   22.9700 H     395  INH395      0.2100
@<TRIPOS>BOND
     1     9     8    1
     2     7     8    1
     3     7     4    1
     4     2     4    1
     5     2    10    1
     6     2     1    1
     7     4     6    1
     8    10    11    1
     9    12     1    1
    10    12    13    1
    11     1     3    1
    12     6     5    1
    13     3     5    1
    14     3    16    1
    15     5    14    1
    16    17    16    1
    17    14    15    1
