@<TRIPOS>MOLECULE
/tmp/ewbell/vina_2b3f_2b3f_lig/vina/vina5.pdbqt
 17 17 0 0 0
SMALL
GASTEIGER

@<TRIPOS>ATOM
      1  C1         8.6370   74.2450   18.5980 C.3   395  INH395      0.1830
      2  C2        10.0610   73.7240   18.8010 C.3   395  INH395      0.1800
      3  C3         8.4960   74.9500   17.2560 C.3   395  INH395      0.2040
      4  C4        11.0570   74.8610   18.4650 C.3   395  INH395      0.1790
      5  C5         9.5790   76.0180   17.0520 C.3   395  INH395      0.2880
      6  O1        10.8510   75.3720   17.1700 O.3   395  INH395     -0.3490
      7  C6        12.5390   74.4760   18.6060 C.3   395  INH395      0.1980
      8  O6        13.0460   74.9140   19.8300 O.3   395  INH395     -0.3980
      9  H12       13.0390   75.8630   19.8570 H     395  INH395      0.2090
     10  O3        10.2200   72.6020   17.9750 O.3   395  INH395     -0.3900
     11  H9         9.8320   72.7760   17.1250 H     395  INH395      0.2100
     12  O2         7.7210   73.1630   18.6800 O.3   395  INH395     -0.3900
     13  H8         7.0480   73.3640   19.3200 H     395  INH395      0.2100
     14  O5         9.4790   76.6070   15.7910 O.3   395  INH395     -0.3690
     15  H11        8.5710   76.6080   15.5120 H     395  INH395      0.2120
     16  O4         7.2030   75.5600   17.1100 O.3   395  INH395     -0.3880
     17  H10        6.5270   74.9200   17.2990 H     395  INH395      0.2100
@<TRIPOS>BOND
     1    15    14    1
     2    14     5    1
     3     5     6    1
     4     5     3    1
     5    16     3    1
     6    16    17    1
     7    11    10    1
     8     6     4    1
     9     3     1    1
    10    10     2    1
    11     4     7    1
    12     4     2    1
    13     1    12    1
    14     1     2    1
    15     7     8    1
    16    12    13    1
    17     8     9    1
