@<TRIPOS>MOLECULE
/tmp/ewbell/vina_2b3f_2b3f_lig/vina/vina4.pdbqt
 17 17 0 0 0
SMALL
GASTEIGER

@<TRIPOS>ATOM
      1  C1         9.0040   65.4450   22.7210 C.3   395  INH395      0.1830
      2  C2        10.4730   65.8480   22.5780 C.3   395  INH395      0.1800
      3  C3         8.4020   65.0760   21.3720 C.3   395  INH395      0.2040
      4  C4        10.5960   66.8680   21.4200 C.3   395  INH395      0.1790
      5  C5         8.6440   66.1650   20.3180 C.3   395  INH395      0.2880
      6  O1        10.0580   66.3670   20.2210 O.3   395  INH395     -0.3490
      7  C6        12.0290   67.3540   21.1440 C.3   395  INH395      0.1980
      8  O6        12.0640   68.1610   20.0060 O.3   395  INH395     -0.3980
      9  H12       11.8170   69.0470   20.2370 H     395  INH395      0.2090
     10  O3        11.2110   64.6770   22.3500 O.3   395  INH395     -0.3900
     11  H9        11.6890   64.4450   23.1380 H     395  INH395      0.2100
     12  O2         8.8990   64.3490   23.6180 O.3   395  INH395     -0.3900
     13  H8         8.6240   63.5740   23.1410 H     395  INH395      0.2100
     14  O5         8.1480   65.7840   19.0710 O.3   395  INH395     -0.3690
     15  H11        7.2820   66.1570   18.9460 H     395  INH395      0.2120
     16  O4         6.9910   64.8260   21.4710 O.3   395  INH395     -0.3880
     17  H10        6.6440   64.6180   20.6110 H     395  INH395      0.2100
@<TRIPOS>BOND
     1    15    14    1
     2    14     5    1
     3     8     9    1
     4     8     7    1
     5     6     5    1
     6     6     4    1
     7     5     3    1
     8    17    16    1
     9     7     4    1
    10     3    16    1
    11     3     1    1
    12     4     2    1
    13    10     2    1
    14    10    11    1
    15     2     1    1
    16     1    12    1
    17    13    12    1
