@<TRIPOS>MOLECULE
./ligand/1y93_lig.pdb
 10 9 0 0 0
SMALL
GASTEIGER

@<TRIPOS>ATOM
      1  C1         0.1710   -1.3880    3.1910 C.3   166  INH166      0.0141
      2  C2         1.4480   -1.5110    3.9910 C.2   166  INH166      0.2323
      3  O1         2.5290   -1.0840    3.5910 O.2   166  INH166     -0.2740
      4  N1         1.3610   -2.0590    5.1850 N.am  166  INH166     -0.1977
      5  O2         2.5080   -1.9970    5.9380 O.3   166  INH166     -0.2952
      6  H1        -0.4310   -2.2890    3.3260 H     166  INH166      0.0323
      7  H2        -0.4090   -0.5390    3.5600 H     166  INH166      0.0323
      8  H3         0.5040   -2.4360    5.5380 H     166  INH166      0.1822
      9  H4         2.4250   -2.1220    6.8920 H     166  INH166      0.2414
     10  H5         0.4100   -1.2490    2.1260 H     166  INH166      0.0323
@<TRIPOS>BOND
     1     1    10    1
     2     1     7    1
     3     1     6    1
     4     1     2    1
     5     2     4   am
     6     2     3    2
     7     4     8    1
     8     4     5    1
     9     5     9    1
