@<TRIPOS>MOLECULE
/tmp/ewbell/vina_1y93_1y93_lig/vina/vina1.pdbqt
 7 6 0 0 0
SMALL
GASTEIGER

@<TRIPOS>ATOM
      1  C1         8.5110   -8.1700    9.2600 C.3   166  INH166      0.1190
      2  C2         7.5150   -7.4540    8.3760 C.2   166  INH166      0.2360
      3  O1         6.3550   -7.2370    8.7190 O.2   166  INH166     -0.2720
      4  N1         7.9490   -7.0100    7.2150 N.am  166  INH166     -0.2380
      5  H3         7.3630   -6.5000    6.5860 H     166  INH166      0.1970
      6  O2         9.2360   -7.3720    6.8990 O.3   166  INH166     -0.2870
      7  H4         9.9410   -6.7430    7.1000 H     166  INH166      0.2440
@<TRIPOS>BOND
     1     5     4    1
     2     6     7    1
     3     6     4    1
     4     4     2   am
     5     2     3    2
     6     2     1    1
