@<TRIPOS>MOLECULE
/tmp/ewbell/vina_1y93_1y93_lig/vina/vina2.pdbqt
 7 6 0 0 0
SMALL
GASTEIGER

@<TRIPOS>ATOM
      1  C1         7.5180   -8.0520    9.4070 C.3   166  INH166      0.1190
      2  C2         8.6260   -7.9750    8.3810 C.2   166  INH166      0.2360
      3  O1         9.6870   -8.5850    8.4990 O.2   166  INH166     -0.2720
      4  N1         8.4000   -7.2560    7.3010 N.am  166  INH166     -0.2380
      5  H3         9.0690   -7.1790    6.5620 H     166  INH166      0.1970
      6  O2         7.2180   -6.5570    7.3060 O.3   166  INH166     -0.2870
      7  H4         7.1070   -5.8580    6.6480 H     166  INH166      0.2440
@<TRIPOS>BOND
     1     5     4    1
     2     7     6    1
     3     4     6    1
     4     4     2   am
     5     2     3    2
     6     2     1    1
