@<TRIPOS>MOLECULE
/tmp/ewbell/vina_1y93_1y93_lig/vina/vina3.pdbqt
 7 6 0 0 0
SMALL
GASTEIGER

@<TRIPOS>ATOM
      1  C1         9.9680   -9.1530    8.1180 C.3   166  INH166      0.1190
      2  C2         8.6340   -8.4760    8.3390 C.2   166  INH166      0.2360
      3  O1         7.8220   -8.8610    9.1770 O.2   166  INH166     -0.2720
      4  N1         8.3780   -7.4010    7.6230 N.am  166  INH166     -0.2380
      5  H3         7.5320   -6.8790    7.7300 H     166  INH166      0.1970
      6  O2         9.3160   -7.1040    6.6650 O.3   166  INH166     -0.2870
      7  H4        10.0890   -7.6800    6.6010 H     166  INH166      0.2440
@<TRIPOS>BOND
     1     7     6    1
     2     6     4    1
     3     4     5    1
     4     4     2   am
     5     1     2    1
     6     2     3    2
