@<TRIPOS>MOLECULE
/tmp/ewbell/vina_1y93_1y93_lig/vina/vina5.pdbqt
 7 6 0 0 0
SMALL
GASTEIGER

@<TRIPOS>ATOM
      1  C1         2.3730   -6.6890    6.1690 C.3   166  INH166      0.1190
      2  C2         2.1790   -5.4990    7.0810 C.2   166  INH166      0.2360
      3  O1         2.9760   -5.2010    7.9680 O.2   166  INH166     -0.2720
      4  N1         1.1270   -4.7370    6.8620 N.am  166  INH166     -0.2380
      5  H3         0.9430   -3.9150    7.4010 H     166  INH166      0.1970
      6  O2         0.2640   -5.2020    5.9010 O.3   166  INH166     -0.2870
      7  H4         0.0140   -6.1350    5.9360 H     166  INH166      0.2440
@<TRIPOS>BOND
     1     6     7    1
     2     6     4    1
     3     1     2    1
     4     4     2   am
     5     4     5    1
     6     2     3    2
