@<TRIPOS>MOLECULE
/tmp/ewbell/vina_1y93_1y93_lig/vina/vina4.pdbqt
 7 6 0 0 0
SMALL
GASTEIGER

@<TRIPOS>ATOM
      1  C1         5.4280   -6.8840    9.1650 C.3   166  INH166      0.1190
      2  C2         4.3920   -6.6200    8.0960 C.2   166  INH166      0.2360
      3  O1         3.1880   -6.5510    8.3370 O.2   166  INH166     -0.2720
      4  N1         4.8280   -6.4090    6.8720 N.am  166  INH166     -0.2380
      5  H3         4.2100   -6.1970    6.1150 H     166  INH166      0.1970
      6  O2         6.1790   -6.5840    6.6990 O.3   166  INH166     -0.2870
      7  H4         6.4690   -7.3370    6.1660 H     166  INH166      0.2440
@<TRIPOS>BOND
     1     5     4    1
     2     7     6    1
     3     6     4    1
     4     4     2   am
     5     2     3    2
     6     2     1    1
