@<TRIPOS>MOLECULE
./ligand/1ps3_lig.pdb
 28 29 0 0 0
SMALL
GASTEIGER

@<TRIPOS>ATOM
      1  C1        31.4730   66.7250    6.8040 C.3   1018  INH1018     0.1042
      2  O1        31.7420   67.6100    5.7130 O.3   1018  INH1018    -0.3872
      3  C2        32.6900   66.7920    7.8050 C.3   1018  INH1018     0.1119
      4  O2        33.8510   66.3060    7.1450 O.3   1018  INH1018    -0.3865
      5  C3        32.5080   66.1550    9.2240 C.3   1018  INH1018     0.1183
      6  O3        33.2470   65.3230    9.6780 O.3   1018  INH1018    -0.3856
      7  C4        30.9360   65.5550    9.3520 C.3   1018  INH1018     0.1219
      8  N1        30.6120   65.4940   10.7760 N.am  1018  INH1018    -0.2868
      9  C5        29.6480   66.3270   11.0980 C.2   1018  INH1018     0.3006
     10  O4        29.2090   66.4430   12.2430 O.2   1018  INH1018    -0.2651
     11  C6        29.2300   67.0570    9.8380 C.2   1018  INH1018     0.3034
     12  O5        28.3440   67.9250    9.7440 O.2   1018  INH1018    -0.2649
     13  N2        30.0150   66.5810    8.8480 N.am  1018  INH1018    -0.2649
     14  C7        30.0950   67.1610    7.4490 C.3   1018  INH1018     0.0797
     15  C8        28.9260   66.6580    6.5580 C.3   1018  INH1018     0.0653
     16  O6        27.6460   66.9110    7.1600 O.3   1018  INH1018    -0.3931
     17  H1        31.3790   65.6930    6.4330 H     1018  INH1018     0.0639
     18  H2        32.5660   67.3700    5.3060 H     1018  INH1018     0.2100
     19  H3        32.8580   67.8620    7.9940 H     1018  INH1018     0.0647
     20  H4        34.5910   66.3420    7.7390 H     1018  INH1018     0.2100
     21  H5        32.5940   67.0060    9.9150 H     1018  INH1018     0.0655
     22  H6        32.9520   65.0780   10.5470 H     1018  INH1018     0.2100
     23  H7        30.8200   64.5880    8.8410 H     1018  INH1018     0.0737
     24  H8        31.0700   64.8900   11.4280 H     1018  INH1018     0.1510
     25  H9        30.0490   68.2580    7.5110 H     1018  INH1018     0.0550
     26  H10       29.0380   65.5750    6.4030 H     1018  INH1018     0.0576
     27  H11       28.9710   67.1740    5.5880 H     1018  INH1018     0.0576
     28  H12       27.5400   67.8450    7.2980 H     1018  INH1018     0.2095
@<TRIPOS>BOND
     1    18     2    1
     2    27    15    1
     3     2     1    1
     4    26    15    1
     5    17     1    1
     6    15    16    1
     7    15    14    1
     8     1    14    1
     9     1     3    1
    10     4    20    1
    11     4     3    1
    12    16    28    1
    13    14    25    1
    14    14    13    1
    15     3    19    1
    16     3     5    1
    17    23     7    1
    18    13     7    1
    19    13    11   am
    20     5     7    1
    21     5     6    1
    22     5    21    1
    23     7     8    1
    24     6    22    1
    25    12    11    2
    26    11     9    1
    27     8     9   am
    28     8    24    1
    29     9    10    2
