@<TRIPOS>MOLECULE
/tmp/ewbell/vina_1ps3_1ps3_lig/vina/vina5.pdbqt
 21 22 0 0 0
SMALL
GASTEIGER

@<TRIPOS>ATOM
      1  C1        26.5490   62.9780   10.1870 C.3   1018  INH1018     0.1740
      2  C2        25.3430   62.0920    9.6880 C.3   1018  INH1018     0.1810
      3  C3        24.2590   62.7720    8.7850 C.3   1018  INH1018     0.1920
      4  C4        24.6550   64.4010    8.5940 C.3   1018  INH1018     0.2220
      5  N1        23.4200   65.1100    8.2640 N.am  1018  INH1018    -0.3290
      6  C5        23.0690   65.9540    9.2080 C.2   1018  INH1018     0.3110
      7  O4        22.0630   66.6620    9.1420 O.2   1018  INH1018    -0.2620
      8  C6        24.1030   65.8670   10.3120 C.2   1018  INH1018     0.3130
      9  O5        24.1110   66.5170   11.3720 O.2   1018  INH1018    -0.2620
     10  N2        25.0030   64.9420    9.9140 N.am  1018  INH1018    -0.3110
     11  C7        26.1070   64.3750   10.7850 C.3   1018  INH1018     0.1440
     12  H8        22.9030   64.9690    7.4200 H     1018  INH1018     0.1650
     13  C8        27.3350   65.3260   10.8370 C.3   1018  INH1018     0.1920
     14  O6        28.3220   64.8760   11.7800 O.3   1018  INH1018    -0.3990
     15  H12       28.6220   65.6130   12.2980 H     1018  INH1018     0.2090
     16  O1        27.2340   62.2610   11.2170 O.3   1018  INH1018    -0.3910
     17  H2        28.1500   62.5130   11.2250 H     1018  INH1018     0.2100
     18  O2        25.8600   60.9050    9.1020 O.3   1018  INH1018    -0.3900
     19  H4        26.6890   60.6870    9.5090 H     1018  INH1018     0.2100
     20  O3        23.9360   62.3530    7.7050 O.3   1018  INH1018    -0.3890
     21  H6        24.6780   62.4000    7.1130 H     1018  INH1018     0.2100
@<TRIPOS>BOND
     1    21    20    1
     2    12     5    1
     3    20     3    1
     4     5     4    1
     5     5     6   am
     6     4     3    1
     7     4    10    1
     8     3     2    1
     9    18    19    1
    10    18     2    1
    11     7     6    2
    12     6     8    1
    13     2     1    1
    14    10     8   am
    15    10    11    1
    16     1    11    1
    17     1    16    1
    18     8     9    2
    19    11    13    1
    20    13    14    1
    21    16    17    1
    22    14    15    1
