@<TRIPOS>MOLECULE
/tmp/ewbell/vina_1ps3_1ps3_lig/vina/vina1.pdbqt
 21 22 0 0 0
SMALL
GASTEIGER

@<TRIPOS>ATOM
      1  C1        31.2770   66.6530    7.0760 C.3   1018  INH1018     0.1740
      2  C2        32.4130   66.7530    8.1650 C.3   1018  INH1018     0.1810
      3  C3        32.1760   66.0390    9.5380 C.3   1018  INH1018     0.1920
      4  C4        30.6450   65.3300    9.5250 C.3   1018  INH1018     0.2220
      5  N1        30.2270   65.1810   10.9180 N.am  1018  INH1018    -0.3290
      6  C5        29.1870   65.9320   11.2040 C.2   1018  INH1018     0.3110
      7  O4        28.6620   65.9640   12.3170 O.2   1018  INH1018    -0.2620
      8  C6        28.8090   66.6910    9.9490 C.2   1018  INH1018     0.3130
      9  O5        27.8730   67.5020    9.8270 O.2   1018  INH1018    -0.2620
     10  N2        29.6920   66.3160    8.9990 N.am  1018  INH1018    -0.3110
     11  C7        29.8300   66.9650    7.6360 C.3   1018  INH1018     0.1440
     12  H8        30.6790   64.5780   11.5750 H     1018  INH1018     0.1650
     13  C8        28.7640   66.4290    6.6410 C.3   1018  INH1018     0.1920
     14  O6        27.4290   66.7670    7.0520 O.3   1018  INH1018    -0.3990
     15  H12       27.0610   67.3970    6.4440 H     1018  INH1018     0.2090
     16  O1        31.5590   67.6040    6.0460 O.3   1018  INH1018    -0.3910
     17  H2        32.1610   67.2230    5.4180 H     1018  INH1018     0.2100
     18  O2        33.6480   66.3770    7.5720 O.3   1018  INH1018    -0.3900
     19  H4        33.8340   66.9500    6.8380 H     1018  INH1018     0.2100
     20  O3        32.9380   65.2370   10.0100 O.3   1018  INH1018    -0.3890
     21  H6        33.5490   64.9500    9.3410 H     1018  INH1018     0.2100
@<TRIPOS>BOND
     1    17    16    1
     2    16     1    1
     3    15    14    1
     4    13    14    1
     5    13    11    1
     6    19    18    1
     7     1    11    1
     8     1     2    1
     9    18     2    1
    10    11    10    1
    11     2     3    1
    12    10     4    1
    13    10     8   am
    14    21    20    1
    15     4     3    1
    16     4     5    1
    17     3    20    1
    18     9     8    2
    19     8     6    1
    20     5     6   am
    21     5    12    1
    22     6     7    2
