@<TRIPOS>MOLECULE
/tmp/ewbell/vina_1ps3_1ps3_lig/vina/vina4.pdbqt
 21 22 0 0 0
SMALL
GASTEIGER

@<TRIPOS>ATOM
      1  C1        27.0160   65.8440    9.0410 C.3   1018  INH1018     0.1740
      2  C2        28.1940   66.5140    9.8480 C.3   1018  INH1018     0.1810
      3  C3        28.9540   65.6380   10.9010 C.3   1018  INH1018     0.1920
      4  C4        28.2470   64.1060   10.9430 C.3   1018  INH1018     0.2220
      5  N1        28.5570   63.5240   12.2470 N.am  1018  INH1018    -0.3290
      6  C5        27.4790   63.3510   12.9780 C.2   1018  INH1018     0.3110
      7  O4        27.5010   62.8720   14.1130 O.2   1018  INH1018    -0.2620
      8  C6        26.2930   63.8390   12.1720 C.2   1018  INH1018     0.3130
      9  O5        25.1020   63.8370   12.5310 O.2   1018  INH1018    -0.2620
     10  N2        26.7900   64.2790   10.9970 N.am  1018  INH1018    -0.3110
     11  C7        26.0000   65.0410    9.9500 C.3   1018  INH1018     0.1440
     12  H8        29.4800   63.2850   12.5470 H     1018  INH1018     0.1650
     13  C8        25.1610   64.0810    9.0620 C.3   1018  INH1018     0.1920
     14  O6        25.3500   64.3430    7.6620 O.3   1018  INH1018    -0.3990
     15  H12       24.9820   65.1920    7.4470 H     1018  INH1018     0.2090
     16  O1        26.2840   66.8780    8.3780 O.3   1018  INH1018    -0.3910
     17  H2        25.8680   66.5230    7.6010 H     1018  INH1018     0.2100
     18  O2        29.0820   67.1360    8.9290 O.3   1018  INH1018    -0.3900
     19  H4        29.9180   66.6870    8.9440 H     1018  INH1018     0.2100
     20  O3        30.1450   65.4830   10.8990 O.3   1018  INH1018    -0.3890
     21  H6        30.3760   64.8100   10.2690 H     1018  INH1018     0.2100
@<TRIPOS>BOND
     1    15    14    1
     2    17    16    1
     3    14    13    1
     4    16     1    1
     5    18    19    1
     6    18     2    1
     7     1     2    1
     8     1    11    1
     9    13    11    1
    10     2     3    1
    11    11    10    1
    12    21    20    1
    13    20     3    1
    14     3     4    1
    15     4    10    1
    16     4     5    1
    17    10     8   am
    18     8     9    2
    19     8     6    1
    20     5    12    1
    21     5     6   am
    22     6     7    2
