@<TRIPOS>MOLECULE
/tmp/ewbell/vina_1ps3_1ps3_lig/vina/vina3.pdbqt
 21 22 0 0 0
SMALL
GASTEIGER

@<TRIPOS>ATOM
      1  C1        28.6740   66.1540    7.9440 C.3   1018  INH1018     0.1740
      2  C2        30.1980   66.3240    8.3100 C.3   1018  INH1018     0.1810
      3  C3        30.6950   65.7360    9.6750 C.3   1018  INH1018     0.1920
      4  C4        29.3780   65.0620   10.4860 C.3   1018  INH1018     0.2220
      5  N1        29.7120   65.0420   11.9090 N.am  1018  INH1018    -0.3290
      6  C5        28.9340   65.8370   12.6090 C.2   1018  INH1018     0.3110
      7  O4        29.0320   65.9760   13.8290 O.2   1018  INH1018    -0.2620
      8  C6        27.9620   66.4930   11.6490 C.2   1018  INH1018     0.3130
      9  O5        27.0710   67.3100   11.9410 O.2   1018  INH1018    -0.2620
     10  N2        28.2660   66.0180   10.4220 N.am  1018  INH1018    -0.3110
     11  C7        27.6900   66.5440    9.1220 C.3   1018  INH1018     0.1440
     12  H8        30.4460   64.4890   12.3030 H     1018  INH1018     0.1650
     13  C8        26.2840   65.9460    8.8390 C.3   1018  INH1018     0.1920
     14  O6        26.3090   65.0090    7.7500 O.3   1018  INH1018    -0.3990
     15  H12       26.1590   64.1330    8.0840 H     1018  INH1018     0.2090
     16  O1        28.3830   67.0070    6.8340 O.3   1018  INH1018    -0.3910
     17  H2        28.5710   67.9080    7.0680 H     1018  INH1018     0.2100
     18  O2        30.9830   65.8720    7.2160 O.3   1018  INH1018    -0.3900
     19  H4        30.4120   65.6030    6.5060 H     1018  INH1018     0.2100
     20  O3        31.6090   64.9620    9.7710 O.3   1018  INH1018    -0.3890
     21  H6        32.3220   65.3720   10.2470 H     1018  INH1018     0.2100
@<TRIPOS>BOND
     1    19    18    1
     2    16    17    1
     3    16     1    1
     4    18     2    1
     5    14    15    1
     6    14    13    1
     7     1     2    1
     8     1    11    1
     9     2     3    1
    10    13    11    1
    11    11    10    1
    12     3    20    1
    13     3     4    1
    14    20    21    1
    15    10     4    1
    16    10     8   am
    17     4     5    1
    18     8     9    2
    19     8     6    1
    20     5    12    1
    21     5     6   am
    22     6     7    2
