@<TRIPOS>MOLECULE
/tmp/ewbell/vina_1ps3_1ps3_lig/vina/vina2.pdbqt
 21 22 0 0 0
SMALL
GASTEIGER

@<TRIPOS>ATOM
      1  C1        28.7150   65.4430   10.9610 C.3   1018  INH1018     0.1740
      2  C2        28.3260   66.1230    9.5920 C.3   1018  INH1018     0.1810
      3  C3        26.8540   65.9570    9.0840 C.3   1018  INH1018     0.1920
      4  C4        26.0070   64.9910   10.1780 C.3   1018  INH1018     0.2220
      5  N1        24.8860   64.3980    9.4520 N.am  1018  INH1018    -0.3290
      6  C5        24.9980   63.0930    9.3520 C.2   1018  INH1018     0.3110
      7  O4        24.1670   62.3840    8.7840 O.2   1018  INH1018    -0.2620
      8  C6        26.2850   62.6870   10.0420 C.2   1018  INH1018     0.3130
      9  O5        26.7330   61.5320   10.1550 O.2   1018  INH1018    -0.2620
     10  N2        26.8430   63.8280   10.4990 N.am  1018  INH1018    -0.3110
     11  C7        28.2400   63.9380   11.0800 C.3   1018  INH1018     0.1440
     12  H8        24.1230   64.9240    9.0750 H     1018  INH1018     0.1650
     13  C8        28.2700   63.5040   12.5720 C.3   1018  INH1018     0.1920
     14  O6        29.4820   63.9170   13.2260 O.3   1018  INH1018    -0.3990
     15  H12       29.2660   64.3550   14.0410 H     1018  INH1018     0.2090
     16  O1        30.1400   65.4600   11.0790 O.3   1018  INH1018    -0.3910
     17  H2        30.4290   64.6830   11.5430 H     1018  INH1018     0.2100
     18  O2        28.7290   67.4850    9.6290 O.3   1018  INH1018    -0.3900
     19  H4        29.2210   67.6490   10.4240 H     1018  INH1018     0.2100
     20  O3        26.1420   66.8820    8.7970 O.3   1018  INH1018    -0.3890
     21  H6        25.5680   67.0780    9.5290 H     1018  INH1018     0.2100
@<TRIPOS>BOND
     1     7     6    2
     2    20     3    1
     3    20    21    1
     4    12     5    1
     5     3     2    1
     6     3     4    1
     7     6     5   am
     8     6     8    1
     9     5     4    1
    10     2    18    1
    11     2     1    1
    12    18    19    1
    13     8     9    2
    14     8    10   am
    15     4    10    1
    16    10    11    1
    17     1    16    1
    18     1    11    1
    19    16    17    1
    20    11    13    1
    21    13    14    1
    22    14    15    1
