@<TRIPOS>MOLECULE
./ligand/2nnq_lig.pdb
 61 65 0 0 0
SMALL
GASTEIGER

@<TRIPOS>ATOM
      1  C1         2.3600   10.6210   15.5130 C.ar  134  INH134     -0.0357
      2  C2         6.0970   10.0740   16.3860 C.ar  134  INH134     -0.0124
      3  C3         6.4370    8.6900   16.2580 C.ar  134  INH134     -0.0121
      4  C4         4.9160   11.7070   14.8380 C.ar  134  INH134     -0.0520
      5  C5         3.7310   12.2490   14.2720 C.ar  134  INH134     -0.0611
      6  C6         6.9200    5.7870   16.8350 C.3   134  INH134      0.1900
      7  C7         6.7200    5.2070   15.4380 C.2   134  INH134      0.3927
      8  C8         7.5930    8.1560   16.9270 C.ar  134  INH134      0.1219
      9  C9         8.4080    9.0190   17.7190 C.ar  134  INH134     -0.0199
     10  C10        8.0780   10.4000   17.8420 C.ar  134  INH134     -0.0577
     11  C11        6.9260   10.9280   17.1780 C.ar  134  INH134     -0.0537
     12  C12        3.3590    6.9490   14.4400 C.3   134  INH134     -0.0598
     13  C13        2.5280    5.5810   18.2210 C.ar  134  INH134     -0.0141
     14  C14        3.0490    6.9750   17.9580 C.ar  134  INH134      0.0311
     15  C15        2.8930    7.7040   16.8070 C.ar  134  INH134      0.0530
     16  C16        2.2770    7.1780   15.5020 C.3   134  INH134     -0.0125
     17  C17        2.9070    3.2440   18.9290 C.ar  134  INH134     -0.0612
     18  C18        4.1060    6.6740   22.5750 C.ar  134  INH134     -0.0611
     19  C19        4.3410    7.5550   20.2760 C.ar  134  INH134      0.0027
     20  C20        1.1270    5.2900   18.0640 C.ar  134  INH134     -0.0539
     21  C21        2.4560   11.7100   14.6080 C.ar  134  INH134     -0.0597
     22  C22        5.6860    7.9410   20.5700 C.ar  134  INH134     -0.0525
     23  C23        3.5450   10.0610   16.0900 C.ar  134  INH134      0.0734
     24  C24        4.8400   10.6120   15.7530 C.ar  134  INH134      0.0077
     25  O1         7.2750    5.7190   14.4680 O.co2 134  INH134     -0.2425
     26  O2         5.9360    4.1630   15.2630 O.co2 134  INH134     -0.2425
     27  O3         7.9380    6.8180   16.8020 O.3   134  INH134     -0.4806
     28  C25        3.4130    4.5430   18.6550 C.ar  134  INH134     -0.0539
     29  N1         3.4580    8.9580   16.9990 N.ar  134  INH134     -0.2350
     30  N2         3.9960    9.0000   18.3230 N.ar  134  INH134     -0.1655
     31  C26        3.7940    7.8620   18.9220 C.ar  134  INH134      0.1011
     32  C27        3.5500    6.9180   21.2880 C.ar  134  INH134     -0.0525
     33  C28        5.4470    7.0620   22.8580 C.ar  134  INH134     -0.0617
     34  C29        6.2380    7.6950   21.8610 C.ar  134  INH134     -0.0611
     35  C30        1.5210    2.9690   18.7680 C.ar  134  INH134     -0.0617
     36  C31        0.6320    3.9900   18.3350 C.ar  134  INH134     -0.0612
     37  H1         1.3890   10.2130   15.7680 H     134  INH134      0.0639
     38  H2         5.8180    8.0380   15.6520 H     134  INH134      0.0660
     39  H3         5.8810   12.1250   14.5750 H     134  INH134      0.0624
     40  H4         3.7980   13.0800   13.5790 H     134  INH134      0.0618
     41  H5         7.2350    4.9860   17.5200 H     134  INH134      0.0817
     42  H6         5.9730    6.2210   17.1880 H     134  INH134      0.0817
     43  H7         9.2800    8.6230   18.2280 H     134  INH134      0.0654
     44  H8         8.7020   11.0530   18.4410 H     134  INH134      0.0619
     45  H9         6.6810   11.9790   17.2760 H     134  INH134      0.0624
     46  H10        2.8930    6.5730   13.5170 H     134  INH134      0.0233
     47  H11        4.0860    6.2110   14.8100 H     134  INH134      0.0233
     48  H12        3.8740    7.8980   14.2310 H     134  INH134      0.0233
     49  H13        1.7630    6.2270   15.7040 H     134  INH134      0.0326
     50  H14        1.5510    7.9130   15.1240 H     134  INH134      0.0326
     51  H15        3.5790    2.4610   19.2610 H     134  INH134      0.0618
     52  H16        3.5090    6.1930   23.3410 H     134  INH134      0.0618
     53  H17        0.4470    6.0690   17.7370 H     134  INH134      0.0624
     54  H18        1.5580   12.1320   14.1720 H     134  INH134      0.0618
     55  H19        6.2880    8.4230   19.8080 H     134  INH134      0.0624
     56  H20        4.4710    4.7480   18.7750 H     134  INH134      0.0624
     57  H21        2.5290    6.6220   21.0730 H     134  INH134      0.0624
     58  H22        5.8670    6.8730   23.8400 H     134  INH134      0.0618
     59  H23        7.2580    7.9900   22.0820 H     134  INH134      0.0618
     60  H24        1.1410    1.9760   18.9770 H     134  INH134      0.0618
     61  H25       -0.4230    3.7750   18.2120 H     134  INH134      0.0618
@<TRIPOS>BOND
     1     1    21   ar
     2     1    37    1
     3     1    23   ar
     4     2    24    1
     5     2    11   ar
     6     2     3   ar
     7     3    38    1
     8     3     8   ar
     9     4    39    1
    10     4    24   ar
    11     4     5   ar
    12     5    40    1
    13     5    21   ar
    14     6    27    1
    15     6    42    1
    16     6    41    1
    17     6     7    1
    18     7    26   ar
    19     7    25   ar
    20     8    27    1
    21     8     9   ar
    22     9    43    1
    23     9    10   ar
    24    10    44    1
    25    10    11   ar
    26    11    45    1
    27    12    16    1
    28    12    48    1
    29    12    47    1
    30    12    46    1
    31    13    14    1
    32    13    28   ar
    33    13    20   ar
    34    14    15   ar
    35    14    31   ar
    36    15    29   ar
    37    15    16    1
    38    16    50    1
    39    16    49    1
    40    17    35   ar
    41    17    51    1
    42    17    28   ar
    43    18    33   ar
    44    18    52    1
    45    18    32   ar
    46    19    31    1
    47    19    32   ar
    48    19    22   ar
    49    20    53    1
    50    20    36   ar
    51    21    54    1
    52    22    55    1
    53    22    34   ar
    54    23    29    1
    55    23    24   ar
    56    28    56    1
    57    29    30   ar
    58    30    31   ar
    59    32    57    1
    60    33    34   ar
    61    33    58    1
    62    34    59    1
    63    35    36   ar
    64    35    60    1
    65    36    61    1
