@<TRIPOS>MOLECULE
/tmp/ewbell/vina_2nnq_2nnq_lig/vina/vina1.pdbqt
 38 42 0 0 0
SMALL
GASTEIGER

@<TRIPOS>ATOM
      1  C14        2.8580    6.9920   18.4460 C.2   134  INH134      0.0280
      2  C15        2.7650    7.8050   17.3460 C.3   134  INH134      0.0470
      3  N1         3.3770    9.0170   17.6410 N.pl3 134  INH134     -0.2580
      4  N2         3.8780    8.9430   18.9780 N.pl3 134  INH134     -0.2920
      5  H2         4.3720    9.6940   19.4600 H     134  INH134      0.1870
      6  C26        3.6120    7.7760   19.4890 C.2   134  INH134      0.0720
      7  C23        3.5350   10.1760   16.8150 C.ar  134  INH134      0.0670
      8  C1         2.4770   11.1350   16.6990 C.ar  134  INH134      0.0320
      9  C21        2.6410   12.2780   15.8740 C.ar  134  INH134      0.0020
     10  C5         3.8570   12.4730   15.1580 C.ar  134  INH134      0.0010
     11  C4         4.9180   11.5330   15.2650 C.ar  134  INH134      0.0140
     12  C24        4.7720   10.3770   16.0930 C.ar  134  INH134      0.0030
     13  C2         5.9190    9.4100   16.2390 C.ar  134  INH134     -0.0210
     14  C11        6.0980    8.3590   15.2870 C.ar  134  INH134      0.0120
     15  C10        7.2280    7.4860   15.3810 C.ar  134  INH134      0.0040
     16  C9         8.1840    7.6590   16.4250 C.ar  134  INH134      0.0370
     17  C8         8.0140    8.7010   17.3860 C.ar  134  INH134      0.0700
     18  C3         6.8750    9.5740   17.2900 C.ar  134  INH134      0.0490
     19  O3         8.9430    8.8450   18.4070 O.3   134  INH134     -0.3410
     20  C6         8.5600    8.6320   19.7880 C.3   134  INH134      0.2850
     21  C7         8.5340    9.9630   20.5330 C.2   134  INH134      0.1640
     22  O2         7.4500   10.7120   20.5100 O.2   134  INH134     -0.6480
     23  O1         9.5160   10.3370   21.1720 O.3   134  INH134     -0.7750
     24  H          9.4030   10.7820   21.9880 H     134  INH134      0.1670
     25  C16        2.1650    7.3990   15.9920 C.3   134  INH134      0.0560
     26  C12        3.1180    6.4710   15.2280 C.3   134  INH134      0.0110
     27  C13        2.2720    5.6070   18.5970 C.ar  134  INH134     -0.0220
     28  C25        0.8810    5.3750   18.3550 C.ar  134  INH134      0.0120
     29  C17        0.3470    4.0640   18.4690 C.ar  134  INH134      0.0010
     30  C30        1.1920    2.9780   18.8290 C.ar  134  INH134      0.0000
     31  C31        2.5750    3.1940   19.0750 C.ar  134  INH134      0.0010
     32  C20        3.1170    4.4980   18.9580 C.ar  134  INH134      0.0120
     33  C19        4.1070    7.3520   20.8320 C.ar  134  INH134     -0.0070
     34  C27        3.2280    6.8240   21.8340 C.ar  134  INH134      0.0140
     35  C18        3.7420    6.4620   23.1100 C.ar  134  INH134      0.0010
     36  C28        5.1290    6.6240   23.3930 C.ar  134  INH134      0.0000
     37  C29        6.0070    7.1470   22.4070 C.ar  134  INH134      0.0010
     38  C22        5.4980    7.5110   21.1260 C.ar  134  INH134      0.0140
@<TRIPOS>BOND
     1    10    11   ar
     2    10     9   ar
     3    26    25    1
     4    11    12   ar
     5    14    15   ar
     6    14    13   ar
     7    15    16   ar
     8     9     8   ar
     9    25     2    1
    10    12    13    1
    11    12     7   ar
    12    13    18   ar
    13    16    17   ar
    14     8     7   ar
    15     7     3    1
    16    18    17   ar
    17     2     3    1
    18     2     1    1
    19    17    19    1
    20     3     4    1
    21    28    29   ar
    22    28    27   ar
    23    19    20    1
    24     1    27    1
    25     1     6    2
    26    29    30   ar
    27    27    32   ar
    28    30    31   ar
    29    32    31   ar
    30     4     5    1
    31     4     6    1
    32     6    33    1
    33    20    21    1
    34    22    21    2
    35    21    23    1
    36    33    38   ar
    37    33    34   ar
    38    38    37   ar
    39    23    24    1
    40    34    35   ar
    41    37    36   ar
    42    35    36   ar
