@<TRIPOS>MOLECULE
/tmp/ewbell/vina_2nnq_2nnq_lig/vina/vina3.pdbqt
 38 42 0 0 0
SMALL
GASTEIGER

@<TRIPOS>ATOM
      1  C14        3.8090    8.0600   19.5490 C.2   134  INH134      0.0280
      2  C15        3.9810    9.2940   18.9750 C.3   134  INH134      0.0470
      3  N1         3.4160    9.2730   17.7060 N.pl3 134  INH134     -0.2580
      4  N2         2.8610    7.9720   17.4930 N.pl3 134  INH134     -0.2920
      5  H2         2.3850    7.6720   16.6440 H     134  INH134      0.1870
      6  C26        3.0530    7.2290   18.5450 C.2   134  INH134      0.0720
      7  C23        3.3430   10.3180   16.7300 C.ar  134  INH134      0.0670
      8  C1         2.4680   11.4340   16.9260 C.ar  134  INH134      0.0320
      9  C21        2.3980   12.4630   15.9510 C.ar  134  INH134      0.0020
     10  C5         3.1970   12.3860   14.7740 C.ar  134  INH134      0.0010
     11  C4         4.0730   11.2870   14.5660 C.ar  134  INH134      0.0140
     12  C24        4.1590   10.2430   15.5380 C.ar  134  INH134      0.0030
     13  C2         5.1260    9.1050   15.3330 C.ar  134  INH134     -0.0210
     14  C11        4.9550    8.2050   14.2350 C.ar  134  INH134      0.0120
     15  C10        5.9140    7.1710   13.9960 C.ar  134  INH134      0.0040
     16  C9         7.0470    7.0300   14.8490 C.ar  134  INH134      0.0370
     17  C8         7.2260    7.9170   15.9530 C.ar  134  INH134      0.0700
     18  C3         6.2590    8.9540   16.1930 C.ar  134  INH134      0.0490
     19  O3         8.3240    7.7550   16.7860 O.3   134  INH134     -0.3410
     20  C6         8.7840    8.8470   17.6210 C.3   134  INH134      0.2850
     21  C7         8.8310    8.4020   19.0800 C.2   134  INH134      0.1640
     22  O2         9.2580    9.2330   20.0100 O.2   134  INH134     -0.6480
     23  O1         8.4560    7.2750   19.3980 O.3   134  INH134     -0.7750
     24  H          7.6290    6.9540   19.0970 H     134  INH134      0.1670
     25  C16        4.6130   10.5120   19.6650 C.3   134  INH134      0.0560
     26  C12        6.0310   10.7640   19.1390 C.3   134  INH134      0.0110
     27  C13        4.3240    7.6120   20.8970 C.ar  134  INH134     -0.0220
     28  C25        3.4200    7.1400   21.9020 C.ar  134  INH134      0.0120
     29  C17        3.9180    6.6930   23.1540 C.ar  134  INH134      0.0010
     30  C30        5.3150    6.7180   23.4170 C.ar  134  INH134      0.0000
     31  C31        6.2240    7.1860   22.4300 C.ar  134  INH134      0.0010
     32  C20        5.7360    7.6300   21.1760 C.ar  134  INH134      0.0120
     33  C19        2.4880    5.8540   18.6740 C.ar  134  INH134     -0.0070
     34  C27        3.2780    4.7480   19.1310 C.ar  134  INH134      0.0140
     35  C18        2.7030    3.4490   19.2090 C.ar  134  INH134      0.0010
     36  C28        1.3450    3.2460   18.8310 C.ar  134  INH134      0.0000
     37  C29        0.5550    4.3360   18.3750 C.ar  134  INH134      0.0010
     38  C22        1.1250    5.6390   18.2970 C.ar  134  INH134      0.0140
@<TRIPOS>BOND
     1    15    14   ar
     2    15    16   ar
     3    14    13   ar
     4    11    10   ar
     5    11    12   ar
     6    10     9   ar
     7    16    17   ar
     8    13    12    1
     9    13    18   ar
    10    12     7   ar
    11     9     8   ar
    12    17    18   ar
    13    17    19    1
    14     5     4    1
    15     7     8   ar
    16     7     3    1
    17    19    20    1
    18     4     3    1
    19     4     6    1
    20    20    21    1
    21     3     2    1
    22    38    37   ar
    23    38    33   ar
    24    37    36   ar
    25     6    33    1
    26     6     1    2
    27    33    34   ar
    28    36    35   ar
    29     2     1    1
    30     2    25    1
    31    21    23    1
    32    21    22    2
    33    24    23    1
    34    34    35   ar
    35    26    25    1
    36     1    27    1
    37    27    32   ar
    38    27    28   ar
    39    32    31   ar
    40    28    29   ar
    41    31    30   ar
    42    29    30   ar
