@<TRIPOS>MOLECULE
/tmp/ewbell/vina_2nnq_2nnq_lig/vina/vina5.pdbqt
 38 42 0 0 0
SMALL
GASTEIGER

@<TRIPOS>ATOM
      1  C14        5.1080    7.8170   17.4940 C.2   134  INH134      0.0280
      2  C15        5.1110    6.9210   18.5320 C.3   134  INH134      0.0470
      3  N1         4.6620    7.5690   19.6760 N.pl3 134  INH134     -0.2580
      4  N2         4.3570    8.9210   19.3240 N.pl3 134  INH134     -0.2920
      5  H2         4.0090    9.6290   19.9700 H     134  INH134      0.1870
      6  C26        4.5900    9.1150   18.0580 C.2   134  INH134      0.0720
      7  C23        4.4880    7.0520   21.0000 C.ar  134  INH134      0.0670
      8  C1         5.3250    7.5050   22.0710 C.ar  134  INH134      0.0320
      9  C21        5.1490    6.9840   23.3790 C.ar  134  INH134      0.0020
     10  C5         4.1420    6.0090   23.6300 C.ar  134  INH134      0.0010
     11  C4         3.3010    5.5510   22.5800 C.ar  134  INH134      0.0140
     12  C24        3.4610    6.0660   21.2560 C.ar  134  INH134      0.0030
     13  C2         2.5350    5.6120   20.1570 C.ar  134  INH134     -0.0210
     14  C11        2.2940    4.2180   19.9500 C.ar  134  INH134      0.0120
     15  C10        1.3570    3.7890   18.9570 C.ar  134  INH134      0.0040
     16  C9         0.6570    4.7470   18.1680 C.ar  134  INH134      0.0370
     17  C8         0.8920    6.1420   18.3610 C.ar  134  INH134      0.0700
     18  C3         1.8370    6.5710   19.3570 C.ar  134  INH134      0.0490
     19  O3         0.2160    7.0620   17.5720 O.3   134  INH134     -0.3410
     20  C6         0.9350    8.1230   16.8950 C.3   134  INH134      0.2850
     21  C7        -0.0510    9.1300   16.3100 C.2   134  INH134      0.1640
     22  O2         0.3880   10.2570   15.7880 O.2   134  INH134     -0.6480
     23  O1        -1.2570    8.8880   16.3070 O.3   134  INH134     -0.7750
     24  H         -1.7830    9.1240   17.0440 H     134  INH134      0.1670
     25  C16        5.4670    5.4310   18.4150 C.3   134  INH134      0.0560
     26  C12        4.6210    4.7510   17.3330 C.3   134  INH134      0.0110
     27  C13        5.5830    7.5640   16.0820 C.ar  134  INH134     -0.0220
     28  C25        6.9790    7.4180   15.7980 C.ar  134  INH134      0.0120
     29  C17        7.4110    7.1500   14.4720 C.ar  134  INH134      0.0010
     30  C30        6.4610    7.0310   13.4210 C.ar  134  INH134      0.0000
     31  C31        5.0720    7.1760   13.6890 C.ar  134  INH134      0.0010
     32  C20        4.6310    7.4390   15.0090 C.ar  134  INH134      0.0120
     33  C19        4.2610   10.3950   17.3650 C.ar  134  INH134     -0.0070
     34  C27        5.0950   10.9340   16.3300 C.ar  134  INH134      0.0140
     35  C18        4.7560   12.1740   15.7200 C.ar  134  INH134      0.0010
     36  C28        3.5910   12.8800   16.1360 C.ar  134  INH134      0.0000
     37  C29        2.7600   12.3540   17.1620 C.ar  134  INH134      0.0010
     38  C22        3.0940   11.1120   17.7760 C.ar  134  INH134      0.0140
@<TRIPOS>BOND
     1    30    31   ar
     2    30    29   ar
     3    31    32   ar
     4    29    28   ar
     5    32    27   ar
     6    35    36   ar
     7    35    34   ar
     8    22    21    2
     9    28    27   ar
    10    27     1    1
    11    36    37   ar
    12    23    21    1
    13    23    24    1
    14    21    20    1
    15    34    33   ar
    16    20    19    1
    17    37    38   ar
    18    26    25    1
    19    33    38   ar
    20    33     6    1
    21     1     6    2
    22     1     2    1
    23    19    17    1
    24     6     4    1
    25    16    17   ar
    26    16    15   ar
    27    17    18   ar
    28    25     2    1
    29     2     3    1
    30    15    14   ar
    31     4     3    1
    32     4     5    1
    33    18    13   ar
    34     3     7    1
    35    14    13   ar
    36    13    12    1
    37     7    12   ar
    38     7     8   ar
    39    12    11   ar
    40     8     9   ar
    41    11    10   ar
    42     9    10   ar
