@<TRIPOS>MOLECULE
/tmp/ewbell/vina_2nnq_2nnq_lig/vina/vina2.pdbqt
 38 42 0 0 0
SMALL
GASTEIGER

@<TRIPOS>ATOM
      1  C14        3.0750    7.2010   18.4610 C.2   134  INH134      0.0280
      2  C15        2.9290    8.0450   17.3900 C.3   134  INH134      0.0470
      3  N1         3.5140    9.2640   17.7060 N.pl3 134  INH134     -0.2580
      4  N2         4.0540    9.1640   19.0260 N.pl3 134  INH134     -0.2920
      5  H2         4.5400    9.9140   19.5180 H     134  INH134      0.1870
      6  C26        3.8350    7.9740   19.5080 C.2   134  INH134      0.0720
      7  C23        3.6170   10.4520   16.9130 C.ar  134  INH134      0.0670
      8  C1         2.4390   11.1700   16.5250 C.ar  134  INH134      0.0320
      9  C21        2.5510   12.3430   15.7340 C.ar  134  INH134      0.0020
     10  C5         3.8320   12.8080   15.3230 C.ar  134  INH134      0.0010
     11  C4         5.0100   12.1100   15.7020 C.ar  134  INH134      0.0140
     12  C24        4.9190   10.9280   16.5000 C.ar  134  INH134      0.0030
     13  C2         6.1750   10.2190   16.9380 C.ar  134  INH134     -0.0210
     14  C11        7.0250   10.8080   17.9250 C.ar  134  INH134      0.0120
     15  C10        8.1770   10.1020   18.3970 C.ar  134  INH134      0.0040
     16  C9         8.4850    8.8070   17.8870 C.ar  134  INH134      0.0370
     17  C8         7.6480    8.2110   16.8970 C.ar  134  INH134      0.0700
     18  C3         6.4930    8.9230   16.4220 C.ar  134  INH134      0.0490
     19  O3         7.9720    6.9570   16.3960 O.3   134  INH134     -0.3410
     20  C6         7.2720    5.7750   16.8590 C.3   134  INH134      0.2850
     21  C7         6.4840    5.1530   15.7100 C.2   134  INH134      0.1640
     22  O2         5.3540    4.5190   15.9510 O.2   134  INH134     -0.6480
     23  O1         6.8880    5.2540   14.5530 O.3   134  INH134     -0.7750
     24  H          7.0630    6.0990   14.1900 H     134  INH134      0.1670
     25  C16        2.3030    7.6630   16.0400 C.3   134  INH134      0.0560
     26  C12        3.3830    7.2410   15.0370 C.3   134  INH134      0.0110
     27  C13        2.5330    5.7950   18.5830 C.ar  134  INH134     -0.0220
     28  C25        3.3990    4.7090   18.9270 C.ar  134  INH134      0.0120
     29  C17        2.8730    3.3970   19.0690 C.ar  134  INH134      0.0010
     30  C30        1.4860    3.1580   18.8660 C.ar  134  INH134      0.0000
     31  C31        0.6150    4.2280   18.5220 C.ar  134  INH134      0.0010
     32  C20        1.1300    5.5400   18.3830 C.ar  134  INH134      0.0120
     33  C19        4.3790    7.5240   20.8220 C.ar  134  INH134     -0.0070
     34  C27        3.5330    7.0000   21.8550 C.ar  134  INH134      0.0140
     35  C18        4.0950    6.6120   23.1030 C.ar  134  INH134      0.0010
     36  C28        5.4950    6.7440   23.3280 C.ar  134  INH134      0.0000
     37  C29        6.3400    7.2640   22.3110 C.ar  134  INH134      0.0010
     38  C22        5.7840    7.6530   21.0580 C.ar  134  INH134      0.0140
@<TRIPOS>BOND
     1    24    23    1
     2    23    21    1
     3    26    25    1
     4    10    11   ar
     5    10     9   ar
     6    11    12   ar
     7    21    22    2
     8    21    20    1
     9     9     8   ar
    10    25     2    1
    11    19    20    1
    12    19    17    1
    13    18    17   ar
    14    18    13   ar
    15    12     7   ar
    16    12    13    1
    17     8     7   ar
    18    17    16   ar
    19     7     3    1
    20    13    14   ar
    21     2     3    1
    22     2     1    1
    23     3     4    1
    24    16    15   ar
    25    14    15   ar
    26    32    31   ar
    27    32    27   ar
    28     1    27    1
    29     1     6    2
    30    31    30   ar
    31    27    28   ar
    32    30    29   ar
    33    28    29   ar
    34     4     6    1
    35     4     5    1
    36     6    33    1
    37    33    38   ar
    38    33    34   ar
    39    38    37   ar
    40    34    35   ar
    41    37    36   ar
    42    35    36   ar
