@<TRIPOS>MOLECULE
/tmp/ewbell/vina_2nnq_2nnq_lig/vina/vina4.pdbqt
 38 42 0 0 0
SMALL
GASTEIGER

@<TRIPOS>ATOM
      1  C14        3.0290    7.4200   18.6970 C.2   134  INH134      0.0280
      2  C15        2.6050    8.2830   17.7190 C.3   134  INH134      0.0470
      3  N1         3.2570    9.4980   17.8900 N.pl3 134  INH134     -0.2580
      4  N2         4.1290    9.3750   19.0160 N.pl3 134  INH134     -0.2920
      5  H2         4.7310   10.1160   19.3730 H     134  INH134      0.1870
      6  C26        4.0430    8.1760   19.5170 C.2   134  INH134      0.0720
      7  C23        3.1480   10.7000   17.1200 C.ar  134  INH134      0.0670
      8  C1         2.6080   11.8910   17.7050 C.ar  134  INH134      0.0320
      9  C21        2.4990   13.0760   16.9330 C.ar  134  INH134      0.0020
     10  C5         2.9250   13.0840   15.5730 C.ar  134  INH134      0.0010
     11  C4         3.4650   11.9130   14.9780 C.ar  134  INH134      0.0140
     12  C24        3.5850   10.7100   15.7410 C.ar  134  INH134      0.0030
     13  C2         4.2040    9.4850   15.1170 C.ar  134  INH134     -0.0210
     14  C11        3.4510    8.6860   14.2020 C.ar  134  INH134      0.0120
     15  C10        4.0610    7.5670   13.5520 C.ar  134  INH134      0.0040
     16  C9         5.4240    7.2400   13.8120 C.ar  134  INH134      0.0370
     17  C8         6.1850    8.0260   14.7290 C.ar  134  INH134      0.0700
     18  C3         5.5680    9.1480   15.3840 C.ar  134  INH134      0.0490
     19  O3         7.5050    7.6840   14.9860 O.3   134  INH134     -0.3410
     20  C6         7.8500    6.8930   16.1500 C.3   134  INH134      0.2850
     21  C7         7.5060    5.4270   15.9060 C.2   134  INH134      0.1640
     22  O2         6.9990    4.6960   16.8770 O.2   134  INH134     -0.6480
     23  O1         7.6850    4.9240   14.7980 O.3   134  INH134     -0.7750
     24  H          7.0310    4.3660   14.4260 H     134  INH134      0.1670
     25  C16        1.6410    7.9250   16.5790 C.3   134  INH134      0.0560
     26  C12        0.2400    8.4880   16.8500 C.3   134  INH134      0.0110
     27  C13        2.5350    6.0120   18.9340 C.ar  134  INH134     -0.0220
     28  C25        1.1400    5.7060   18.8460 C.ar  134  INH134      0.0120
     29  C17        0.6890    4.3730   19.0400 C.ar  134  INH134      0.0010
     30  C30        1.6230    3.3390   19.3290 C.ar  134  INH134      0.0000
     31  C31        3.0110    3.6300   19.4220 C.ar  134  INH134      0.0010
     32  C20        3.4690    4.9560   19.2240 C.ar  134  INH134      0.0120
     33  C19        4.9170    7.7020   20.6300 C.ar  134  INH134     -0.0070
     34  C27        4.3770    7.2440   21.8770 C.ar  134  INH134      0.0140
     35  C18        5.2520    6.8310   22.9200 C.ar  134  INH134      0.0010
     36  C28        6.6620    6.8730   22.7270 C.ar  134  INH134      0.0000
     37  C29        7.2060    7.3280   21.4960 C.ar  134  INH134      0.0010
     38  C22        6.3350    7.7420   20.4470 C.ar  134  INH134      0.0140
@<TRIPOS>BOND
     1    15    16   ar
     2    15    14   ar
     3    16    17   ar
     4    14    13   ar
     5    24    23    1
     6    17    19    1
     7    17    18   ar
     8    23    21    1
     9    11    10   ar
    10    11    12   ar
    11    19    20    1
    12    13    18   ar
    13    13    12    1
    14    10     9   ar
    15    12     7   ar
    16    21    20    1
    17    21    22    2
    18    25    26    1
    19    25     2    1
    20     9     8   ar
    21     7     8   ar
    22     7     3    1
    23     2     3    1
    24     2     1    1
    25     3     4    1
    26     1    27    1
    27     1     6    2
    28    28    27   ar
    29    28    29   ar
    30    27    32   ar
    31     4     5    1
    32     4     6    1
    33    29    30   ar
    34    32    31   ar
    35    30    31   ar
    36     6    33    1
    37    38    33   ar
    38    38    37   ar
    39    33    34   ar
    40    37    36   ar
    41    34    35   ar
    42    36    35   ar
