@<TRIPOS>MOLECULE
./ligand/1tr7_lig.pdb
 36 36 0 0 0
SMALL
GASTEIGER

@<TRIPOS>ATOM
      1  C1        58.0940  -14.4700   24.7120 C.3   161  INH161     -0.0538
      2  C2        59.2250  -15.3800   25.1340 C.3   161  INH161     -0.0652
      3  C3        55.6010  -14.3180   24.8530 C.3   161  INH161      0.0508
      4  C4        56.7940  -15.2440   24.8400 C.3   161  INH161     -0.0296
      5  C5        54.0600  -12.7260   22.0770 C.3   161  INH161      0.1341
      6  O1        52.7820  -12.1400   21.9760 O.3   161  INH161     -0.3841
      7  C6        55.1590  -11.8420   21.4420 C.3   161  INH161      0.1141
      8  O2        54.8130  -11.5920   20.0880 O.3   161  INH161     -0.3864
      9  C7        55.3300  -10.5400   22.2530 C.3   161  INH161      0.1119
     10  O3        56.3750   -9.7720   21.6700 O.3   161  INH161     -0.3865
     11  C8        55.5940  -10.7870   23.7750 C.3   161  INH161      0.1130
     12  O4        54.6440  -11.6660   24.4100 O.3   161  INH161     -0.3405
     13  C9        55.5820   -9.5120   24.5910 C.3   161  INH161      0.0730
     14  O5        54.3100   -8.8470   24.4620 O.3   161  INH161     -0.3924
     15  O6        55.5360  -13.6260   23.6130 O.3   161  INH161     -0.3487
     16  C10       54.4120  -12.7620   23.5360 C.3   161  INH161      0.1879
     17  H1        58.2390  -14.1540   23.6680 H     161  INH161      0.0263
     18  H2        58.0660  -13.5840   25.3630 H     161  INH161      0.0263
     19  H3        60.1800  -14.8410   25.0500 H     161  INH161      0.0230
     20  H4        59.2450  -16.2660   24.4820 H     161  INH161      0.0230
     21  H5        59.0720  -15.6950   26.1770 H     161  INH161      0.0230
     22  H6        55.7060  -13.5940   25.6740 H     161  INH161      0.0561
     23  H7        54.6810  -14.9040   24.9960 H     161  INH161      0.0561
     24  H8        56.8110  -15.8190   25.7770 H     161  INH161      0.0287
     25  H9        56.7030  -15.9340   23.9880 H     161  INH161      0.0287
     26  H10       54.0570  -13.7310   21.6290 H     161  INH161      0.0671
     27  H11       52.5230  -12.1000   21.0630 H     161  INH161      0.2101
     28  H12       56.1130  -12.3880   21.4640 H     161  INH161      0.0648
     29  H13       55.4810  -11.0490   19.6860 H     161  INH161      0.2100
     30  H14       54.3940   -9.9670   22.1710 H     161  INH161      0.0647
     31  H15       56.4890   -8.9670   22.1620 H     161  INH161      0.2100
     32  H16       56.5920  -11.2430   23.8550 H     161  INH161      0.0647
     33  H17       56.3790   -8.8440   24.2320 H     161  INH161      0.0584
     34  H18       55.7580   -9.7570   25.6490 H     161  INH161      0.0584
     35  H19       54.3160   -8.0500   24.9780 H     161  INH161      0.2095
     36  H20       53.5570  -13.2760   23.9990 H     161  INH161      0.0937
@<TRIPOS>BOND
     1     1    18    1
     2     1    17    1
     3     1     4    1
     4     1     2    1
     5     2    21    1
     6     2    20    1
     7     2    19    1
     8     3     4    1
     9     3    23    1
    10     3    22    1
    11     3    15    1
    12     4    25    1
    13     4    24    1
    14     5    16    1
    15     5    26    1
    16     5     7    1
    17     5     6    1
    18     6    27    1
    19     7    28    1
    20     7     9    1
    21     7     8    1
    22     8    29    1
    23     9    30    1
    24     9    11    1
    25     9    10    1
    26    10    31    1
    27    11    32    1
    28    11    13    1
    29    11    12    1
    30    12    16    1
    31    13    34    1
    32    13    33    1
    33    13    14    1
    34    14    35    1
    35    15    16    1
    36    16    36    1
