@<TRIPOS>MOLECULE
/tmp/ewbell/vina_1tr7_1tr7_lig/vina/vina2.pdbqt
 20 20 0 0 0
SMALL
GASTEIGER

@<TRIPOS>ATOM
      1  C5        53.9520  -12.6780   21.8890 C.3   161  INH161      0.2040
      2  C6        55.1490  -11.7930   21.4710 C.3   161  INH161      0.1830
      3  C7        55.3520  -10.6540   22.4920 C.3   161  INH161      0.1800
      4  C8        55.4940  -11.1600   23.9660 C.3   161  INH161      0.1790
      5  O4        54.4450  -12.0530   24.3930 O.3   161  INH161     -0.3480
      6  C10       54.2000  -12.9740   23.3400 C.3   161  INH161      0.2910
      7  O6        55.2550  -13.9240   23.3370 O.3   161  INH161     -0.3590
      8  C3        54.9330  -15.0900   24.0840 C.3   161  INH161      0.1710
      9  C4        54.4900  -16.1780   23.1340 C.3   161  INH161      0.0260
     10  C1        55.3220  -16.1750   21.8630 C.3   161  INH161     -0.0020
     11  C2        54.3950  -16.4230   20.6950 C.3   161  INH161      0.0050
     12  O1        52.7260  -11.9860   21.8130 O.3   161  INH161     -0.3880
     13  H11       52.8920  -11.0670   21.6400 H     161  INH161      0.2100
     14  O2        54.9140  -11.3040   20.1590 O.3   161  INH161     -0.3900
     15  H13       55.3250  -11.8830   19.5270 H     161  INH161      0.2100
     16  C9        55.5120  -10.0350   24.9780 C.3   161  INH161      0.1980
     17  O5        54.6770   -8.9470   24.5330 O.3   161  INH161     -0.3980
     18  H19       54.8230   -8.1900   25.0870 H     161  INH161      0.2090
     19  O3        56.4840   -9.8870   22.1030 O.3   161  INH161     -0.3900
     20  H15       56.7200  -10.1010   21.2080 H     161  INH161      0.2100
@<TRIPOS>BOND
     1    15    14    1
     2    14     2    1
     3    11    10    1
     4    20    19    1
     5     2     1    1
     6     2     3    1
     7    13    12    1
     8    12     1    1
     9    10     9    1
    10     1     6    1
    11    19     3    1
    12     3     4    1
    13     9     8    1
    14     7     6    1
    15     7     8    1
    16     6     5    1
    17     4     5    1
    18     4    16    1
    19    17    16    1
    20    17    18    1
