@<TRIPOS>MOLECULE
/tmp/ewbell/vina_1tr7_1tr7_lig/vina/vina1.pdbqt
 20 20 0 0 0
SMALL
GASTEIGER

@<TRIPOS>ATOM
      1  C5        54.0120  -12.6930   21.9360 C.3   161  INH161      0.2040
      2  C6        55.2150  -11.8150   21.5190 C.3   161  INH161      0.1830
      3  C7        55.3980  -10.6520   22.5180 C.3   161  INH161      0.1800
      4  C8        55.5130  -11.1240   24.0050 C.3   161  INH161      0.1790
      5  O4        54.4570  -12.0080   24.4340 O.3   161  INH161     -0.3480
      6  C10       54.2330  -12.9540   23.3970 C.3   161  INH161      0.2910
      7  O6        55.2890  -13.9020   23.4370 O.3   161  INH161     -0.3590
      8  C3        55.1610  -14.8070   24.5250 C.3   161  INH161      0.1710
      9  C4        56.5370  -15.1580   25.0410 C.3   161  INH161      0.0260
     10  C1        57.5660  -14.1240   24.6200 C.3   161  INH161     -0.0020
     11  C2        58.6100  -14.0300   25.7100 C.3   161  INH161      0.0050
     12  O1        52.7870  -12.0040   21.8210 O.3   161  INH161     -0.3880
     13  H11       52.3530  -11.9870   22.6660 H     161  INH161      0.2100
     14  O2        55.0050  -11.3570   20.1920 O.3   161  INH161     -0.3900
     15  H13       54.2190  -11.7600   19.8400 H     161  INH161      0.2100
     16  C9        55.5110   -9.9750   24.9910 C.3   161  INH161      0.1980
     17  O5        54.6330   -8.9260   24.5360 O.3   161  INH161     -0.3980
     18  H19       55.1370   -8.2700   24.0720 H     161  INH161      0.2090
     19  O3        56.5360   -9.8920   22.1320 O.3   161  INH161     -0.3900
     20  H15       57.2530  -10.0700   22.7300 H     161  INH161      0.2100
@<TRIPOS>BOND
     1    15    14    1
     2    14     2    1
     3     2     1    1
     4     2     3    1
     5    12     1    1
     6    12    13    1
     7     1     6    1
     8    19     3    1
     9    19    20    1
    10     3     4    1
    11     6     7    1
    12     6     5    1
    13     7     8    1
    14     4     5    1
    15     4    16    1
    16    18    17    1
    17     8     9    1
    18    17    16    1
    19    10     9    1
    20    10    11    1
