@<TRIPOS>MOLECULE
/tmp/ewbell/vina_1tr7_1tr7_lig/vina/vina3.pdbqt
 20 20 0 0 0
SMALL
GASTEIGER

@<TRIPOS>ATOM
      1  C5        57.2280  -12.3290   22.6090 C.3   161  INH161      0.2040
      2  C6        56.3800  -11.0350   22.6230 C.3   161  INH161      0.1830
      3  C7        55.1050  -11.2250   21.7750 C.3   161  INH161      0.1800
      4  C8        54.2610  -12.4740   22.1940 C.3   161  INH161      0.1790
      5  O4        55.0120  -13.7020   22.2720 O.3   161  INH161     -0.3480
      6  C10       56.2440  -13.4190   22.9220 C.3   161  INH161      0.2910
      7  O6        55.9820  -13.2790   24.3100 O.3   161  INH161     -0.3590
      8  C3        55.7510  -14.5300   24.9450 C.3   161  INH161      0.1710
      9  C4        57.0410  -15.3160   24.9720 C.3   161  INH161      0.0260
     10  C1        58.0040  -14.7640   26.0090 C.3   161  INH161     -0.0020
     11  C2        59.2510  -14.3000   25.2920 C.3   161  INH161      0.0050
     12  O1        57.7560  -12.6050   21.3320 O.3   161  INH161     -0.3880
     13  H11       57.3710  -12.0140   20.6960 H     161  INH161      0.2100
     14  O2        57.1840   -9.9620   22.1560 O.3   161  INH161     -0.3900
     15  H13       57.0330   -9.1950   22.6970 H     161  INH161      0.2100
     16  C9        53.1130  -12.7550   21.2480 C.3   161  INH161      0.1980
     17  O5        52.0040  -11.8790   21.5310 O.3   161  INH161     -0.3980
     18  H19       52.0280  -11.6230   22.4440 H     161  INH161      0.2090
     19  O3        54.3280  -10.0350   21.8450 O.3   161  INH161     -0.3900
     20  H15       53.6260  -10.1520   22.4740 H     161  INH161      0.2100
@<TRIPOS>BOND
     1    13    12    1
     2    16    17    1
     3    16     4    1
     4    12     1    1
     5    17    18    1
     6     3    19    1
     7     3     4    1
     8     3     2    1
     9    19    20    1
    10    14     2    1
    11    14    15    1
    12     4     5    1
    13     5     6    1
    14     1     2    1
    15     1     6    1
    16     6     7    1
    17     7     8    1
    18     8     9    1
    19     9    10    1
    20    11    10    1
