@<TRIPOS>MOLECULE
/tmp/ewbell/vina_1tr7_1tr7_lig/vina/vina5.pdbqt
 20 20 0 0 0
SMALL
GASTEIGER

@<TRIPOS>ATOM
      1  C5        55.0990  -14.6380   22.6360 C.3   161  INH161      0.2040
      2  C6        56.5190  -14.0280   22.5690 C.3   161  INH161      0.1830
      3  C7        56.4370  -12.5230   22.2370 C.3   161  INH161      0.1800
      4  C8        55.5090  -11.7230   23.2100 C.3   161  INH161      0.1790
      5  O4        54.1920  -12.2840   23.3740 O.3   161  INH161     -0.3480
      6  C10       54.3320  -13.6920   23.5130 C.3   161  INH161      0.2910
      7  O6        54.8040  -13.9550   24.8250 O.3   161  INH161     -0.3590
      8  C3        54.6170  -15.3120   25.2040 C.3   161  INH161      0.1710
      9  C4        55.6570  -15.6850   26.2350 C.3   161  INH161      0.0260
     10  C1        56.9800  -16.0440   25.5810 C.3   161  INH161     -0.0020
     11  C2        57.9850  -14.9710   25.9350 C.3   161  INH161      0.0050
     12  O1        54.4630  -14.6420   21.3780 O.3   161  INH161     -0.3880
     13  H11       54.0850  -13.7870   21.2110 H     161  INH161      0.2100
     14  O2        57.2780  -14.7510   21.6110 O.3   161  INH161     -0.3900
     15  H13       58.1130  -14.9980   21.9900 H     161  INH161      0.2100
     16  C9        55.2930  -10.2890   22.7730 C.3   161  INH161      0.1980
     17  O5        55.6940  -10.1180   21.4000 O.3   161  INH161     -0.3980
     18  H19       54.9460  -10.2550   20.8320 H     161  INH161      0.2090
     19  O3        57.7530  -11.9850   22.2260 O.3   161  INH161     -0.3900
     20  H15       58.2370  -12.3450   21.4910 H     161  INH161      0.2100
@<TRIPOS>BOND
     1    18    17    1
     2    13    12    1
     3    12     1    1
     4    17    16    1
     5    20    19    1
     6    14    15    1
     7    14     2    1
     8    19     3    1
     9     3     2    1
    10     3     4    1
    11     2     1    1
    12     1     6    1
    13    16     4    1
    14     4     5    1
    15     5     6    1
    16     6     7    1
    17     7     8    1
    18     8     9    1
    19    10    11    1
    20    10     9    1
