@<TRIPOS>MOLECULE
/tmp/ewbell/vina_1tr7_1tr7_lig/vina/vina4.pdbqt
 20 20 0 0 0
SMALL
GASTEIGER

@<TRIPOS>ATOM
      1  C5        57.8500  -14.4470   22.7880 C.3   161  INH161      0.2040
      2  C6        57.6370  -12.9200   22.6570 C.3   161  INH161      0.1830
      3  C7        56.1880  -12.5500   23.0360 C.3   161  INH161      0.1800
      4  C8        55.7620  -13.0740   24.4470 C.3   161  INH161      0.1790
      5  O4        56.0040  -14.4790   24.6590 O.3   161  INH161     -0.3480
      6  C10       57.2920  -14.7820   24.1410 C.3   161  INH161      0.2910
      7  O6        58.2580  -14.2920   25.0600 O.3   161  INH161     -0.3590
      8  C3        58.4450  -15.1660   26.1650 C.3   161  INH161      0.1710
      9  C4        59.1330  -14.4140   27.2800 C.3   161  INH161      0.0260
     10  C1        60.3460  -13.6570   26.7690 C.3   161  INH161     -0.0020
     11  C2        60.6130  -12.5070   27.7150 C.3   161  INH161      0.0050
     12  O1        57.0980  -15.1720   21.8420 O.3   161  INH161     -0.3880
     13  H11       57.2610  -16.1010   21.9520 H     161  INH161      0.2100
     14  O2        57.9650  -12.5300   21.3320 O.3   161  INH161     -0.3900
     15  H13       58.8730  -12.2540   21.2990 H     161  INH161      0.2100
     16  C9        54.2910  -12.8640   24.7350 C.3   161  INH161      0.1980
     17  O5        53.5540  -12.7230   23.5050 O.3   161  INH161     -0.3980
     18  H19       52.6890  -13.0990   23.6090 H     161  INH161      0.2090
     19  O3        56.0380  -11.1390   22.9470 O.3   161  INH161     -0.3900
     20  H15       56.4740  -10.8220   22.1640 H     161  INH161      0.2100
@<TRIPOS>BOND
     1    15    14    1
     2    14     2    1
     3    12    13    1
     4    12     1    1
     5    20    19    1
     6     2     1    1
     7     2     3    1
     8     1     6    1
     9    19     3    1
    10     3     4    1
    11    17    18    1
    12    17    16    1
    13     6     5    1
    14     6     7    1
    15     4     5    1
    16     4    16    1
    17     7     8    1
    18     8     9    1
    19    10     9    1
    20    10    11    1
