@<TRIPOS>MOLECULE
./ligand/3c7i_lig.pdb
 66 66 0 0 0
SMALL
GASTEIGER

@<TRIPOS>ATOM
      1  O1       -11.4300    8.4070   -5.5280 O.2   207  INH207     -0.2114
      2  P1        -9.8850    8.6990   -5.8650 P.3   207  INH207      0.5886
      3  O2        -9.7520    8.5920   -7.4660 O.3   207  INH207     -0.1039
      4  O3        -8.9580    7.7700   -5.1790 O.3   207  INH207     -0.1039
      5  O4        -9.5960   10.2520   -5.5410 O.3   207  INH207     -0.4011
      6  C1        -9.8600   10.7150   -4.2880 C.ar  207  INH207      0.1322
      7  C2        -9.5000   12.0320   -4.0310 C.ar  207  INH207     -0.0191
      8  C3        -9.8380   12.6420   -2.8230 C.ar  207  INH207     -0.0551
      9  C4       -10.5520    9.9960   -3.3130 C.ar  207  INH207     -0.0191
     10  C5       -10.8900   10.6020   -2.1050 C.ar  207  INH207     -0.0551
     11  C6       -10.5410   11.9290   -1.8610 C.ar  207  INH207     -0.0464
     12  C7       -10.9670   12.6460   -0.5750 C.3   207  INH207     -0.0161
     13  C8       -12.6140   14.1730   -1.7960 C.3   207  INH207      0.0353
     14  C9       -12.8640   13.4590   -3.1270 C.2   207  INH207      0.2135
     15  O5       -13.5550   12.4450   -3.1820 O.2   207  INH207     -0.2758
     16  N1       -12.2880   14.0320   -4.1820 N.am  207  INH207     -0.3184
     17  C10      -12.6530   13.5290   -5.5150 C.3   207  INH207      0.0001
     18  C11      -12.3940   13.2010   -0.6310 C.3   207  INH207      0.0477
     19  C12      -12.7500   13.9250    0.6710 C.2   207  INH207      0.2175
     20  O6       -12.3910   15.0850    0.8730 O.2   207  INH207     -0.2755
     21  N2       -13.4470   13.2030    1.5400 N.am  207  INH207     -0.3035
     22  C13      -13.9140   13.7210    2.8390 C.3   207  INH207      0.1017
     23  C14      -14.6560   12.6190    3.6010 C.3   207  INH207     -0.0197
     24  C15      -15.8320   12.0850    2.7800 C.3   207  INH207     -0.0605
     25  C16      -15.1640   13.1140    4.9580 C.3   207  INH207     -0.0605
     26  C17      -12.7830   14.2990    3.6960 C.2   207  INH207      0.2342
     27  O7       -12.9430   15.3610    4.2990 O.2   207  INH207     -0.2738
     28  N3       -11.6620   13.5870    3.7310 N.am  207  INH207     -0.3020
     29  C18      -10.4970   14.0100    4.5240 C.3   207  INH207      0.1074
     30  C19       -9.4500   14.7050    3.6510 C.2   207  INH207      0.2313
     31  O8        -8.2850   14.8210    4.0290 O.2   207  INH207     -0.2740
     32  N4        -9.9020   15.1730    2.4920 N.am  207  INH207     -0.3278
     33  C20       -9.8970   12.8060    5.2580 C.3   207  INH207      0.0506
     34  C21       -9.4170   11.7090    4.3060 C.2   207  INH207      0.2127
     35  O9        -9.8750   11.6030    3.1670 O.2   207  INH207     -0.2760
     36  N5        -8.4830   10.9070    4.8060 N.am  207  INH207     -0.3293
     37  H1        -8.9500   12.5920   -4.7780 H     207  INH207      0.0654
     38  H2        -9.5520   13.6710   -2.6360 H     207  INH207      0.0621
     39  H3       -10.8270    8.9640   -3.4960 H     207  INH207      0.0654
     40  H4       -11.4270   10.0380   -1.3510 H     207  INH207      0.0621
     41  H5       -10.2750   13.4820   -0.3960 H     207  INH207      0.0321
     42  H6       -10.9030   11.9320    0.2590 H     207  INH207      0.0321
     43  H7       -13.4850   14.8040   -1.5670 H     207  INH207      0.0366
     44  H8       -11.7200   14.8060   -1.8990 H     207  INH207      0.0366
     45  H9       -11.6310   14.7780   -4.0720 H     207  INH207      0.1484
     46  H10      -12.1030   14.0930   -6.2830 H     207  INH207      0.0426
     47  H11      -13.7340   13.6560   -5.6710 H     207  INH207      0.0426
     48  H12      -12.3940   12.4620   -5.5880 H     207  INH207      0.0426
     49  H13      -13.0790   12.3500   -0.7590 H     207  INH207      0.0402
     50  H14      -13.6670   12.2570    1.3010 H     207  INH207      0.1495
     51  H15      -14.6250   14.5360    2.6370 H     207  INH207      0.0597
     52  H16      -13.9510   11.7930    3.7770 H     207  INH207      0.0318
     53  H17      -16.3470   11.2960    3.3480 H     207  INH207      0.0233
     54  H18      -15.4590   11.6700    1.8320 H     207  INH207      0.0233
     55  H19      -16.5350   12.9050    2.5700 H     207  INH207      0.0233
     56  H20      -14.3190   13.4980    5.5480 H     207  INH207      0.0233
     57  H21      -15.6400   12.2820    5.4970 H     207  INH207      0.0233
     58  H22      -15.8980   13.9180    4.8040 H     207  INH207      0.0233
     59  H23      -11.6080   12.7390    3.2030 H     207  INH207      0.1495
     60  H24      -10.8410   14.7330    5.2780 H     207  INH207      0.0599
     61  H25       -9.2790   15.6410    1.8650 H     207  INH207      0.1450
     62  H26      -10.8650   15.0580    2.2470 H     207  INH207      0.1450
     63  H27      -10.6640   12.3830    5.9240 H     207  INH207      0.0381
     64  H28       -9.0410   13.1510    5.8570 H     207  INH207      0.0381
     65  H29       -8.1130   10.1630    4.2500 H     207  INH207      0.1449
     66  H30       -8.1500   11.0480    5.7380 H     207  INH207      0.1449
@<TRIPOS>BOND
     1     1     2    2
     2     2     5    1
     3     2     4    1
     4     2     3    1
     5     5     6    1
     6     6     7   ar
     7     6     9   ar
     8     7     8   ar
     9     7    37    1
    10     8    11   ar
    11     8    38    1
    12     9    39    1
    13     9    10   ar
    14    10    11   ar
    15    10    40    1
    16    11    12    1
    17    12    18    1
    18    12    42    1
    19    12    41    1
    20    13    44    1
    21    13    43    1
    22    13    18    1
    23    13    14    1
    24    14    16   am
    25    14    15    2
    26    16    45    1
    27    16    17    1
    28    17    48    1
    29    17    47    1
    30    17    46    1
    31    18    49    1
    32    18    19    1
    33    19    21   am
    34    19    20    2
    35    21    50    1
    36    21    22    1
    37    22    51    1
    38    22    26    1
    39    22    23    1
    40    23    52    1
    41    23    25    1
    42    23    24    1
    43    24    55    1
    44    24    54    1
    45    24    53    1
    46    25    58    1
    47    25    57    1
    48    25    56    1
    49    26    28   am
    50    26    27    2
    51    28    59    1
    52    28    29    1
    53    29    60    1
    54    29    33    1
    55    29    30    1
    56    30    32   am
    57    30    31    2
    58    32    62    1
    59    32    61    1
    60    33    64    1
    61    33    63    1
    62    33    34    1
    63    34    36   am
    64    34    35    2
    65    36    66    1
    66    36    65    1
