@<TRIPOS>MOLECULE
/tmp/ewbell/vina_3c7i_3c7i_lig/vina/vina4.pdbqt
 45 45 0 0 0
SMALL
GASTEIGER

@<TRIPOS>ATOM
      1  C12      -12.4880   13.7350    1.3480 C.2   207  INH207      0.2230
      2  O6       -12.9450   14.8630    1.5360 O.2   207  INH207     -0.2730
      3  N2       -12.4490   13.1400    0.1620 N.am  207  INH207     -0.3470
      4  H14      -12.0590   12.2210    0.1060 H     207  INH207      0.1630
      5  C11      -11.9290   12.9030    2.5060 C.3   207  INH207      0.0910
      6  C7       -12.3710   13.4780    3.8560 C.3   207  INH207      0.0530
      7  C6       -13.8810   13.3670    4.1000 C.ar  207  INH207     -0.0570
      8  C3       -14.4810   14.2520    4.9860 C.ar  207  INH207      0.0100
      9  C2       -15.8390   14.1260    5.2790 C.ar  207  INH207      0.0380
     10  C1       -16.6030   13.1230    4.6950 C.ar  207  INH207      0.0810
     11  C4       -16.0000   12.2460    3.7950 C.ar  207  INH207      0.0380
     12  C5       -14.6440   12.3690    3.4990 C.ar  207  INH207      0.0100
     13  O4       -17.8850   13.0070    5.1410 O.3   207  INH207     -0.2550
     14  P1       -19.0240   13.9170    4.4550 P.3   207  INH207      0.3960
     15  O1       -19.2710   13.3580    2.9680 O.2   207  INH207     -0.6310
     16  O3       -18.7200   15.3670    4.4850 O.3   207  INH207     -0.3070
     17  H        -18.7730   15.6900    5.3990 H     207  INH207      0.2220
     18  O2       -20.3620   13.5770    5.2850 O.3   207  INH207     -0.3070
     19  H        -20.8550   14.3950    5.4530 H     207  INH207      0.2220
     20  C8       -10.4050   12.8330    2.3550 C.3   207  INH207      0.1170
     21  C9        -9.7090   12.2750    3.5990 C.2   207  INH207      0.2170
     22  N1        -8.9070   13.1360    4.2200 N.am  207  INH207     -0.3650
     23  H9        -8.3890   12.8690    5.0330 H     207  INH207      0.1610
     24  C10       -8.8080   14.4960    3.6690 C.3   207  INH207      0.1490
     25  O5        -9.8930   11.1160    3.9610 O.2   207  INH207     -0.2740
     26  C13      -12.9510   13.7620   -1.0770 C.3   207  INH207      0.1800
     27  C17      -13.8030   12.8110   -1.9240 C.2   207  INH207      0.2410
     28  N3       -15.1040   13.0730   -1.9550 N.am  207  INH207     -0.3460
     29  H23      -15.7050   12.4900   -2.5020 H     207  INH207      0.1630
     30  O7       -13.2750   11.8730   -2.5230 O.2   207  INH207     -0.2710
     31  C18      -15.6880   14.1990   -1.2090 C.3   207  INH207      0.1850
     32  C20      -16.8460   14.8110   -2.0040 C.3   207  INH207      0.1370
     33  C21      -17.7260   13.7570   -2.6780 C.2   207  INH207      0.2170
     34  N5       -18.7640   13.3520   -1.9540 N.am  207  INH207     -0.3700
     35  H30      -18.9180   13.7350   -1.0430 H     207  INH207      0.1590
     36  H29      -19.3900   12.6630   -2.3200 H     207  INH207      0.1590
     37  O9       -17.4670   13.3310   -3.8050 O.2   207  INH207     -0.2740
     38  C19      -16.1420   13.7660    0.1870 C.2   207  INH207      0.2380
     39  N4       -16.0510   14.7030    1.1260 N.am  207  INH207     -0.3680
     40  H26      -15.7040   15.6120    0.8940 H     207  INH207      0.1590
     41  H25      -16.3280   14.4980    2.0650 H     207  INH207      0.1590
     42  O8       -16.5720   12.6320    0.3920 O.2   207  INH207     -0.2710
     43  C14      -11.7760   14.3060   -1.8970 C.3   207  INH207      0.0090
     44  C16      -11.6210   15.8190   -1.7270 C.3   207  INH207      0.0120
     45  C15      -10.4700   13.6120   -1.5060 C.3   207  INH207      0.0120
@<TRIPOS>BOND
     1    37    33    2
     2    33    32    1
     3    33    34   am
     4    30    27    2
     5    29    28    1
     6    36    34    1
     7    32    31    1
     8    28    27   am
     9    28    31    1
    10    34    35    1
    11    27    26    1
    12    43    44    1
    13    43    45    1
    14    43    26    1
    15    31    38    1
    16    26     3    1
    17     4     3    1
    18     3     1   am
    19    38    42    2
    20    38    39   am
    21    40    39    1
    22    39    41    1
    23     1     2    2
    24     1     5    1
    25    20     5    1
    26    20    21    1
    27     5     6    1
    28    15    14    2
    29    12    11   ar
    30    12     7   ar
    31    21    25    2
    32    21    22   am
    33    24    22    1
    34    11    10   ar
    35     6     7    1
    36     7     8   ar
    37    22    23    1
    38    14    16    1
    39    14    13    1
    40    14    18    1
    41    16    17    1
    42    10    13    1
    43    10     9   ar
    44     8     9   ar
    45    18    19    1
