@<TRIPOS>MOLECULE
/tmp/ewbell/vina_3c7i_3c7i_lig/vina/vina3.pdbqt
 45 45 0 0 0
SMALL
GASTEIGER

@<TRIPOS>ATOM
      1  C12      -11.2370   13.0320    0.6600 C.2   207  INH207      0.2230
      2  O6       -10.3190   12.3430    1.1050 O.2   207  INH207     -0.2730
      3  N2       -11.8180   14.0170    1.3330 N.am  207  INH207     -0.3470
      4  H14      -12.5580   14.5230    0.8890 H     207  INH207      0.1630
      5  C11      -11.8050   12.7850   -0.7410 C.3   207  INH207      0.0910
      6  C7       -10.7750   13.1360   -1.8190 C.3   207  INH207      0.0530
      7  C6       -10.2560   11.9150   -2.5870 C.ar  207  INH207     -0.0570
      8  C3        -9.2840   12.1010   -3.5610 C.ar  207  INH207      0.0100
      9  C2        -8.8470   11.0160   -4.3210 C.ar  207  INH207      0.0380
     10  C1        -9.3730    9.7460   -4.1180 C.ar  207  INH207      0.0810
     11  C4       -10.3380    9.5600   -3.1280 C.ar  207  INH207      0.0380
     12  C5       -10.7760   10.6410   -2.3660 C.ar  207  INH207      0.0100
     13  O4        -8.9740    8.7820   -4.9940 O.3   207  INH207     -0.2550
     14  P1        -9.8880    8.4910   -6.2880 P.3   207  INH207      0.3960
     15  O1       -11.3940    8.2450   -5.7810 O.2   207  INH207     -0.6310
     16  O3        -9.3770    7.3910   -7.1380 O.3   207  INH207     -0.3070
     17  H         -8.4100    7.3550   -7.0740 H     207  INH207      0.2220
     18  O2        -9.9110    9.8900   -7.0850 O.3   207  INH207     -0.3070
     19  H        -10.5910   10.4690   -6.7040 H     207  INH207      0.2220
     20  C8       -13.1090   13.5790   -0.8770 C.3   207  INH207      0.1170
     21  C9       -14.2590   12.7430   -1.4450 C.2   207  INH207      0.2170
     22  N1       -15.3560   12.7230   -0.6940 N.am  207  INH207     -0.3650
     23  H9       -16.1600   12.1920   -0.9630 H     207  INH207      0.1610
     24  C10      -15.3460   13.5090    0.5500 C.3   207  INH207      0.1490
     25  O5       -14.1390   12.1440   -2.5110 O.2   207  INH207     -0.2740
     26  C13      -11.4310   14.4060    2.7020 C.3   207  INH207      0.1800
     27  C17      -11.9710   13.4510    3.7720 C.2   207  INH207      0.2410
     28  N3       -11.0560   12.8590    4.5320 N.am  207  INH207     -0.3460
     29  H23      -11.3540   12.2340    5.2540 H     207  INH207      0.1630
     30  O7       -13.1830   13.2700    3.8880 O.2   207  INH207     -0.2710
     31  C18       -9.6160   13.0970    4.3430 C.3   207  INH207      0.1850
     32  C20       -9.0700   13.9500    5.4930 C.3   207  INH207      0.1370
     33  C21       -8.5110   15.2940    5.0220 C.2   207  INH207      0.2170
     34  N5        -7.7560   15.2300    3.9290 N.am  207  INH207     -0.3700
     35  H30       -7.5950   14.3500    3.4840 H     207  INH207      0.1590
     36  H29       -7.3500   16.0630    3.5540 H     207  INH207      0.1590
     37  O9        -8.7520   16.3380    5.6290 O.2   207  INH207     -0.2740
     38  C19       -8.8460   11.7810    4.2160 C.2   207  INH207      0.2380
     39  N4        -9.3510   10.7620    4.9040 N.am  207  INH207     -0.3680
     40  H26      -10.1770   10.8890    5.4530 H     207  INH207      0.1590
     41  H25       -8.9050    9.8670    4.8720 H     207  INH207      0.1590
     42  O8        -7.8440   11.6980    3.5060 O.2   207  INH207     -0.2710
     43  C14      -11.8880   15.8410    2.9830 C.3   207  INH207      0.0090
     44  C16      -13.1590   16.1920    2.2040 C.3   207  INH207      0.0120
     45  C15      -12.1320   16.0520    4.4790 C.3   207  INH207      0.0120
@<TRIPOS>BOND
     1    16    17    1
     2    16    14    1
     3    18    19    1
     4    18    14    1
     5    14    15    2
     6    14    13    1
     7    13    10    1
     8     9    10   ar
     9     9     8   ar
    10    10    11   ar
    11     8     7   ar
    12    11    12   ar
    13     7    12   ar
    14     7     6    1
    15    25    21    2
    16     6     5    1
    17    21    20    1
    18    21    22   am
    19    23    22    1
    20    20     5    1
    21     5     1    1
    22    22    24    1
    23     1     2    2
    24     1     3   am
    25     4     3    1
    26     3    26    1
    27    44    43    1
    28    26    43    1
    29    26    27    1
    30    43    45    1
    31    35    34    1
    32    42    38    2
    33    36    34    1
    34    27    30    2
    35    27    28   am
    36    34    33   am
    37    38    31    1
    38    38    39   am
    39    31    28    1
    40    31    32    1
    41    28    29    1
    42    41    39    1
    43    39    40    1
    44    33    32    1
    45    33    37    2
