@<TRIPOS>MOLECULE
/tmp/ewbell/vina_3c7i_3c7i_lig/vina/vina5.pdbqt
 45 45 0 0 0
SMALL
GASTEIGER

@<TRIPOS>ATOM
      1  C12       -0.6190   10.9800   -2.0440 C.2   207  INH207      0.2230
      2  O6         0.3530   10.2250   -2.0200 O.2   207  INH207     -0.2730
      3  N2        -0.9360   11.7470   -3.0800 N.am  207  INH207     -0.3470
      4  H14       -1.7460   12.3300   -3.0070 H     207  INH207      0.1630
      5  C11       -1.5530   11.1070   -0.8360 C.3   207  INH207      0.0910
      6  C7        -2.7420   12.0170   -1.1580 C.3   207  INH207      0.0530
      7  C6        -3.8340   11.3240   -1.9820 C.ar  207  INH207     -0.0570
      8  C3        -4.2190   10.0370   -1.6330 C.ar  207  INH207      0.0100
      9  C2        -5.1600    9.3590   -2.4090 C.ar  207  INH207      0.0380
     10  C1        -5.7190    9.9560   -3.5320 C.ar  207  INH207      0.0810
     11  C4        -5.3420   11.2550   -3.8700 C.ar  207  INH207      0.0380
     12  C5        -4.4040   11.9360   -3.0970 C.ar  207  INH207      0.0100
     13  O4        -6.5290    9.1680   -4.2920 O.3   207  INH207     -0.2550
     14  P1        -8.1030    9.5100   -4.3470 P.3   207  INH207      0.3960
     15  O1        -8.2950   10.7910   -5.3000 O.2   207  INH207     -0.6310
     16  O3        -8.7180    9.6860   -3.0110 O.3   207  INH207     -0.3070
     17  H         -8.0670   10.0730   -2.4040 H     207  INH207      0.2220
     18  O2        -8.7550    8.2680   -5.1380 O.3   207  INH207     -0.3070
     19  H         -8.0500    7.7170   -5.5130 H     207  INH207      0.2220
     20  C8        -0.7280   11.5990    0.3590 C.3   207  INH207      0.1170
     21  C9        -0.2470   10.4580    1.2590 C.2   207  INH207      0.2170
     22  N1         0.8340   10.7390    1.9830 N.am  207  INH207     -0.3650
     23  H9         1.2420   10.0580    2.5910 H     207  INH207      0.1610
     24  C10        1.4070   12.0880    1.8570 C.3   207  INH207      0.1490
     25  O5        -0.8310    9.3780    1.2800 O.2   207  INH207     -0.2740
     26  C13       -0.1590   11.7860   -4.3310 C.3   207  INH207      0.1800
     27  C17        1.3280   12.0820   -4.1060 C.2   207  INH207      0.2410
     28  N3         2.1740   11.1670   -4.5630 N.am  207  INH207     -0.3460
     29  H23        3.1580   11.3150   -4.4520 H     207  INH207      0.1630
     30  O7         1.6750   13.1150   -3.5330 O.2   207  INH207     -0.2710
     31  C18        1.7080    9.9400   -5.2290 C.3   207  INH207      0.1850
     32  C20        2.1270    9.9520   -6.7030 C.3   207  INH207      0.1370
     33  C21        1.1380    9.2130   -7.6070 C.2   207  INH207      0.2170
     34  N5         1.6410    8.1540   -8.2340 N.am  207  INH207     -0.3700
     35  H30        2.5970    7.8980   -8.0930 H     207  INH207      0.1590
     36  H29        1.0620    7.6150   -8.8450 H     207  INH207      0.1590
     37  O9        -0.0270    9.5950   -7.7310 O.2   207  INH207     -0.2740
     38  C19        2.2240    8.6880   -4.5160 C.2   207  INH207      0.2380
     39  N4         1.5050    7.5880   -4.7150 N.am  207  INH207     -0.3680
     40  H26        0.6920    7.6200   -5.2960 H     207  INH207      0.1590
     41  H25        1.7770    6.7280   -4.2830 H     207  INH207      0.1590
     42  O8         3.2440    8.7240   -3.8280 O.2   207  INH207     -0.2710
     43  C14       -0.7710   12.8120   -5.2910 C.3   207  INH207      0.0090
     44  C16       -1.7820   12.1650   -6.2410 C.3   207  INH207      0.0120
     45  C15       -1.4510   13.9450   -4.5170 C.3   207  INH207      0.0120
@<TRIPOS>BOND
     1    36    34    1
     2    34    35    1
     3    34    33   am
     4    37    33    2
     5    33    32    1
     6    32    31    1
     7    44    43    1
     8    19    18    1
     9    15    14    2
    10    40    39    1
    11    43    45    1
    12    43    26    1
    13    31    28    1
    14    31    38    1
    15    18    14    1
    16    39    38   am
    17    39    41    1
    18    28    29    1
    19    28    27   am
    20    38    42    2
    21    14    13    1
    22    14    16    1
    23    26    27    1
    24    26     3    1
    25    13    10    1
    26    27    30    2
    27    11    10   ar
    28    11    12   ar
    29    10     9   ar
    30    12     7   ar
    31     3     4    1
    32     3     1   am
    33    16    17    1
    34     9     8   ar
    35     1     2    2
    36     1     5    1
    37     7     8   ar
    38     7     6    1
    39     6     5    1
    40     5    20    1
    41    20    21    1
    42    21    25    2
    43    21    22   am
    44    24    22    1
    45    22    23    1
