@<TRIPOS>MOLECULE
/tmp/ewbell/vina_3c7i_3c7i_lig/vina/vina2.pdbqt
 45 45 0 0 0
SMALL
GASTEIGER

@<TRIPOS>ATOM
      1  C12       -1.5050   11.1710   -1.2640 C.2   207  INH207      0.2230
      2  O6        -0.8140   10.9160   -2.2500 O.2   207  INH207     -0.2730
      3  N2        -1.0820   11.0540   -0.0120 N.am  207  INH207     -0.3470
      4  H14       -1.7160   11.2840    0.7260 H     207  INH207      0.1630
      5  C11       -2.9560   11.6400   -1.4140 C.3   207  INH207      0.0910
      6  C7        -3.3610   11.7010   -2.8900 C.3   207  INH207      0.0530
      7  C6        -4.7310   11.0730   -3.1730 C.ar  207  INH207     -0.0570
      8  C3        -5.0300    9.8390   -2.6110 C.ar  207  INH207      0.0100
      9  C2        -6.2420    9.2160   -2.9100 C.ar  207  INH207      0.0380
     10  C1        -7.1570    9.8140   -3.7670 C.ar  207  INH207      0.0810
     11  C4        -6.8610   11.0610   -4.3160 C.ar  207  INH207      0.0380
     12  C5        -5.6520   11.6870   -4.0190 C.ar  207  INH207      0.0100
     13  O4        -8.2510    9.0700   -4.0930 O.3   207  INH207     -0.2550
     14  P1        -9.6520    9.4020   -3.3700 P.3   207  INH207      0.3960
     15  O1        -9.9950   10.9480   -3.6500 O.2   207  INH207     -0.6310
     16  O3        -9.6710    9.0570   -1.9300 O.3   207  INH207     -0.3070
     17  H         -9.1380    9.7000   -1.4360 H     207  INH207      0.2220
     18  O2       -10.7410    8.5500   -4.1960 O.3   207  INH207     -0.3070
     19  H        -10.7040    8.7990   -5.1330 H     207  INH207      0.2220
     20  C8        -3.1010   12.9870   -0.6970 C.3   207  INH207      0.1170
     21  C9        -3.2880   14.1590   -1.6640 C.2   207  INH207      0.2170
     22  N1        -2.2030   14.9090   -1.8450 N.am  207  INH207     -0.3650
     23  H9        -2.2210   15.7100   -2.4420 H     207  INH207      0.1610
     24  C10       -0.9770   14.5160   -1.1330 C.3   207  INH207      0.1490
     25  O5        -4.3700   14.3660   -2.2060 O.2   207  INH207     -0.2740
     26  C13        0.2740   10.6030    0.3500 C.3   207  INH207      0.1800
     27  C17        0.4280    9.0780    0.3210 C.2   207  INH207      0.2410
     28  N3         1.4070    8.6110   -0.4450 N.am  207  INH207     -0.3460
     29  H23        1.5580    7.6230   -0.4920 H     207  INH207      0.1630
     30  O7        -0.3300    8.3660    0.9810 O.2   207  INH207     -0.2710
     31  C18        2.2760    9.5040   -1.2270 C.3   207  INH207      0.1850
     32  C20        3.6710    9.5620   -0.5960 C.3   207  INH207      0.1370
     33  C21        3.9870    8.3350    0.2610 C.2   207  INH207      0.2170
     34  N5         4.5500    7.3260   -0.3970 N.am  207  INH207     -0.3700
     35  H30        4.7340    7.4090   -1.3760 H     207  INH207      0.1590
     36  H29        4.7890    6.4850    0.0890 H     207  INH207      0.1590
     37  O9         3.7250    8.3080    1.4650 O.2   207  INH207     -0.2740
     38  C19        2.3480    9.0690   -2.6930 C.2   207  INH207      0.2380
     39  N4         1.3850    9.5490   -3.4730 N.am  207  INH207     -0.3680
     40  H26        0.6820   10.1480   -3.0880 H     207  INH207      0.1590
     41  H25        1.3630    9.3120   -4.4440 H     207  INH207      0.1590
     42  O8         3.2550    8.3400   -3.0950 O.2   207  INH207     -0.2710
     43  C14        0.6550   11.1550    1.7270 C.3   207  INH207      0.0090
     44  C16        1.9680   11.9420    1.6780 C.3   207  INH207      0.0120
     45  C15       -0.4550   12.0500    2.2820 C.3   207  INH207      0.0120
@<TRIPOS>BOND
     1    19    18    1
     2    41    39    1
     3    11    12   ar
     4    11    10   ar
     5    18    14    1
     6    13    10    1
     7    13    14    1
     8    12     7   ar
     9    10     9   ar
    10    15    14    2
    11    39    40    1
    12    39    38   am
    13    14    16    1
    14     7     6    1
    15     7     8   ar
    16    42    38    2
    17     9     8   ar
    18     6     5    1
    19    38    31    1
    20    23    22    1
    21     2     1    2
    22    25    21    2
    23    16    17    1
    24    22    21   am
    25    22    24    1
    26    21    20    1
    27     5     1    1
    28     5    20    1
    29    35    34    1
    30     1     3   am
    31    31    32    1
    32    31    28    1
    33    32    33    1
    34    29    28    1
    35    28    27   am
    36    34    36    1
    37    34    33   am
    38     3    26    1
    39     3     4    1
    40    33    37    2
    41    27    26    1
    42    27    30    2
    43    26    43    1
    44    44    43    1
    45    43    45    1
