@<TRIPOS>MOLECULE
/tmp/ewbell/vina_3c7i_3c7i_lig/vina/vina1.pdbqt
 45 45 0 0 0
SMALL
GASTEIGER

@<TRIPOS>ATOM
      1  C12      -11.1930   12.3910   -0.5670 C.2   207  INH207      0.2230
      2  O6       -11.0320   11.1870   -0.7640 O.2   207  INH207     -0.2730
      3  N2       -11.1080   13.3150   -1.5170 N.am  207  INH207     -0.3470
      4  H14      -11.2540   14.2710   -1.2620 H     207  INH207      0.1630
      5  C11      -11.4940   12.9320    0.8340 C.3   207  INH207      0.0910
      6  C7       -12.7710   13.7790    0.8300 C.3   207  INH207      0.0530
      7  C6       -13.3580   14.0010    2.2290 C.ar  207  INH207     -0.0570
      8  C3       -13.3040   12.9640    3.1500 C.ar  207  INH207      0.0100
      9  C2       -13.8950   13.1180    4.4040 C.ar  207  INH207      0.0380
     10  C1       -14.5400   14.2990    4.7470 C.ar  207  INH207      0.0810
     11  C4       -14.5780   15.3450    3.8250 C.ar  207  INH207      0.0380
     12  C5       -13.9880   15.1960    2.5720 C.ar  207  INH207      0.0100
     13  O4       -15.1910   14.3040    5.9430 O.3   207  INH207     -0.2550
     14  P1       -16.6810   13.6940    6.0120 P.3   207  INH207      0.3960
     15  O1       -17.1590   13.7370    7.5470 O.2   207  INH207     -0.6310
     16  O3       -16.7960   12.3460    5.4080 O.3   207  INH207     -0.3070
     17  H        -17.6970   12.0110    5.5370 H     207  INH207      0.2220
     18  O2       -17.5910   14.7700    5.2340 O.3   207  INH207     -0.3070
     19  H        -18.4430   14.8620    5.6870 H     207  INH207      0.2220
     20  C8       -10.2640   13.7030    1.3250 C.3   207  INH207      0.1170
     21  C9        -9.7350   13.1870    2.6660 C.2   207  INH207      0.2170
     22  N1        -9.6640   14.1050    3.6270 N.am  207  INH207     -0.3650
     23  H9        -9.3150   13.8780    4.5360 H     207  INH207      0.1610
     24  C10      -10.1160   15.4670    3.3030 C.3   207  INH207      0.1490
     25  O5        -9.4030   12.0130    2.8060 O.2   207  INH207     -0.2740
     26  C13      -10.8110   13.0070   -2.9270 C.3   207  INH207      0.1800
     27  C17       -9.3170   13.0920   -3.2590 C.2   207  INH207      0.2410
     28  N3        -8.7660   11.9790   -3.7290 N.am  207  INH207     -0.3460
     29  H23       -7.7950   11.9820   -3.9720 H     207  INH207      0.1630
     30  O7        -8.7020   14.1450   -3.0860 O.2   207  INH207     -0.2710
     31  C18       -9.5420   10.7410   -3.9040 C.3   207  INH207      0.1850
     32  C20       -9.5720   10.3460   -5.3850 C.3   207  INH207      0.1370
     33  C21      -10.0790    8.9200   -5.6080 C.2   207  INH207      0.2170
     34  N5        -9.2690    8.1470   -6.3250 N.am  207  INH207     -0.3700
     35  H30       -8.4050    8.5130   -6.6690 H     207  INH207      0.1590
     36  H29       -9.5250    7.2000   -6.5190 H     207  INH207      0.1590
     37  O9       -11.1610    8.5440   -5.1530 O.2   207  INH207     -0.2740
     38  C19       -8.9850    9.6070   -3.0400 C.2   207  INH207      0.2380
     39  N4        -9.8530    9.0660   -2.1910 N.am  207  INH207     -0.3680
     40  H26      -10.7930    9.4050   -2.1530 H     207  INH207      0.1590
     41  H25       -9.5660    8.3190   -1.5920 H     207  INH207      0.1590
     42  O8        -7.8180    9.2350   -3.1560 O.2   207  INH207     -0.2710
     43  C14      -11.6180   13.9340   -3.8430 C.3   207  INH207      0.0090
     44  C16      -11.7230   13.3740   -5.2640 C.3   207  INH207      0.0120
     45  C15      -13.0220   14.1680   -3.2810 C.3   207  INH207      0.0120
@<TRIPOS>BOND
     1    35    34    1
     2    36    34    1
     3    34    33   am
     4    33    32    1
     5    33    37    2
     6    32    31    1
     7    44    43    1
     8    29    28    1
     9    31    28    1
    10    31    38    1
    11    43    45    1
    12    43    26    1
    13    28    27   am
    14    27    30    2
    15    27    26    1
    16    42    38    2
    17    38    39   am
    18    26     3    1
    19    39    40    1
    20    39    41    1
    21     3     4    1
    22     3     1   am
    23     2     1    2
    24     1     5    1
    25     6     5    1
    26     6     7    1
    27     5    20    1
    28    20    21    1
    29     7    12   ar
    30     7     8   ar
    31    12    11   ar
    32    21    25    2
    33    21    22   am
    34     8     9   ar
    35    24    22    1
    36    22    23    1
    37    11    10   ar
    38     9    10   ar
    39    10    13    1
    40    18    19    1
    41    18    14    1
    42    16    17    1
    43    16    14    1
    44    13    14    1
    45    14    15    2
