@<TRIPOS>MOLECULE
./ligand/1gzc_lig.pdb
 45 46 0 0 0
SMALL
GASTEIGER

@<TRIPOS>ATOM
      1  C1        83.5890   42.7070   30.5940 C.3   487  INH487      0.1884
      2  C2        83.3470   41.5450   31.5350 C.3   487  INH487      0.1341
      3  C3        81.9990   40.8490   31.0880 C.3   487  INH487      0.1141
      4  C4        80.8800   41.9040   31.1440 C.3   487  INH487      0.1119
      5  C5        81.2420   43.0760   30.2260 C.3   487  INH487      0.1130
      6  C6        80.2060   44.1980   30.2870 C.3   487  INH487      0.0730
      7  O1        84.7910   43.4140   30.9710 O.3   487  INH487     -0.3401
      8  O2        84.4430   40.5970   31.4980 O.3   487  INH487     -0.3841
      9  O3        81.7290   39.7410   31.9440 O.3   487  INH487     -0.3864
     10  O4        80.6980   42.4520   32.4430 O.3   487  INH487     -0.3865
     11  O5        82.5060   43.6490   30.6340 O.3   487  INH487     -0.3405
     12  O6        80.4780   45.0920   29.1980 O.3   487  INH487     -0.3924
     13  C7        87.2420   46.5170   29.5120 C.3   487  INH487      0.1854
     14  C8        85.7470   46.8320   29.4400 C.3   487  INH487      0.1339
     15  C9        85.0230   45.8400   30.3920 C.3   487  INH487      0.1144
     16  C10       85.3410   44.3870   29.9980 C.3   487  INH487      0.1184
     17  C11       86.8550   44.1320   29.9620 C.3   487  INH487      0.1134
     18  C12       87.1800   42.7380   29.3860 C.3   487  INH487      0.0730
     19  O7        87.9290   47.3930   28.6630 O.3   487  INH487     -0.3649
     20  O8        85.4500   48.1460   29.8720 O.3   487  INH487     -0.3841
     21  O9        83.6150   46.1090   30.3420 O.3   487  INH487     -0.3864
     22  O10       87.4560   45.1390   29.0630 O.3   487  INH487     -0.3407
     23  O11       88.5790   42.4900   29.4290 O.3   487  INH487     -0.3924
     24  H1        83.6960   42.3180   29.5710 H     487  INH487      0.0938
     25  H2        83.2420   41.9240   32.5620 H     487  INH487      0.0671
     26  H3        82.0980   40.4830   30.0550 H     487  INH487      0.0648
     27  H4        79.9400   41.4400   30.8100 H     487  INH487      0.0647
     28  H5        81.3170   42.7060   29.1930 H     487  INH487      0.0647
     29  H6        80.2890   44.7350   31.2440 H     487  INH487      0.0584
     30  H7        79.1930   43.7810   30.1870 H     487  INH487      0.0584
     31  H8        84.2630   39.8810   32.0970 H     487  INH487      0.2101
     32  H9        80.9190   39.3230   31.6750 H     487  INH487      0.2100
     33  H10       80.4710   41.7580   33.0500 H     487  INH487      0.2100
     34  H11       79.8490   45.8040   29.2080 H     487  INH487      0.2095
     35  H12       87.6030   46.6350   30.5440 H     487  INH487      0.0935
     36  H13       85.3930   46.7000   28.4070 H     487  INH487      0.0671
     37  H14       85.3780   46.0060   31.4200 H     487  INH487      0.0648
     38  H15       84.9110   44.1950   29.0040 H     487  INH487      0.0651
     39  H16       87.2720   44.2220   30.9760 H     487  INH487      0.0647
     40  H17       86.8370   42.6900   28.3420 H     487  INH487      0.0584
     41  H18       86.6590   41.9720   29.9790 H     487  INH487      0.0584
     42  H19       88.8600   47.2060   28.7000 H     487  INH487      0.2126
     43  H20       84.5140   48.2960   29.8100 H     487  INH487      0.2101
     44  H21       83.1570   45.5100   30.9200 H     487  INH487      0.2100
     45  H22       88.7590   41.6290   29.0710 H     487  INH487      0.2095
@<TRIPOS>BOND
     1     1     7    1
     2     1    24    1
     3     1    11    1
     4     1     2    1
     5     2    25    1
     6     2     8    1
     7     2     3    1
     8     3    26    1
     9     3     9    1
    10     3     4    1
    11     4    27    1
    12     4    10    1
    13     4     5    1
    14     5    28    1
    15     5    11    1
    16     5     6    1
    17     6    30    1
    18     6    29    1
    19     6    12    1
    20     7    16    1
    21     8    31    1
    22     9    32    1
    23    10    33    1
    24    12    34    1
    25    13    35    1
    26    13    22    1
    27    13    19    1
    28    13    14    1
    29    14    36    1
    30    14    20    1
    31    14    15    1
    32    15    37    1
    33    15    21    1
    34    15    16    1
    35    16    38    1
    36    16    17    1
    37    17    39    1
    38    17    22    1
    39    17    18    1
    40    18    41    1
    41    18    40    1
    42    18    23    1
    43    19    42    1
    44    20    43    1
    45    21    44    1
    46    23    45    1
