@<TRIPOS>MOLECULE
/tmp/ewbell/vina_1gzc_1gzc_lig/vina/vina2.pdbqt
 31 32 0 0 0
SMALL
GASTEIGER

@<TRIPOS>ATOM
      1  O1        84.3400   40.0550   29.8570 O.3   487  INH487     -0.3480
      2  C1        85.4490   40.2720   30.7570 C.3   487  INH487      0.2920
      3  O5        86.5310   40.8110   29.9830 O.3   487  INH487     -0.3480
      4  C5        87.6970   41.1230   30.7810 C.3   487  INH487      0.1790
      5  C4        88.2040   39.8570   31.4810 C.3   487  INH487      0.1800
      6  C3        87.0820   39.2780   32.3610 C.3   487  INH487      0.1830
      7  C2        85.8410   38.9720   31.4290 C.3   487  INH487      0.2040
      8  C6        88.7390   41.7130   29.8320 C.3   487  INH487      0.1980
      9  O6        88.3530   41.3570   28.4970 O.3   487  INH487     -0.3980
     10  H11       87.7820   40.5980   28.5240 H     487  INH487      0.2090
     11  O4        88.6190   38.9670   30.4530 O.3   487  INH487     -0.3900
     12  H10       88.3600   38.0820   30.6780 H     487  INH487      0.2100
     13  O3        87.4870   38.0820   33.0220 O.3   487  INH487     -0.3900
     14  H9        88.2320   37.7060   32.5670 H     487  INH487      0.2100
     15  O2        84.7460   38.4260   32.2050 O.3   487  INH487     -0.3880
     16  H8        84.8490   37.4840   32.2780 H     487  INH487      0.2100
     17  C10       83.1850   40.9780   29.9660 C.3   487  INH487      0.1870
     18  C9        82.6830   41.1050   31.4140 C.3   487  INH487      0.1830
     19  C8        81.5800   42.1960   31.5140 C.3   487  INH487      0.2040
     20  C7        82.1840   43.4970   30.9840 C.3   487  INH487      0.2880
     21  O10       82.5770   43.3010   29.5870 O.3   487  INH487     -0.3490
     22  C11       83.6750   42.3270   29.4190 C.3   487  INH487      0.1800
     23  O9        82.1430   39.8690   31.9010 O.3   487  INH487     -0.3900
     24  H21       82.0900   39.2440   31.1880 H     487  INH487      0.2100
     25  O8        81.1860   42.2950   32.8680 O.3   487  INH487     -0.3880
     26  H20       81.6670   42.9980   33.2880 H     487  INH487      0.2100
     27  O7        81.2170   44.5070   31.0570 O.3   487  INH487     -0.3690
     28  H19       80.4460   44.2440   30.5660 H     487  INH487      0.2120
     29  C12       84.0010   42.2430   27.9140 C.3   487  INH487      0.1980
     30  O11       85.3820   41.9780   27.7110 O.3   487  INH487     -0.3980
     31  H22       85.5580   41.9080   26.7810 H     487  INH487      0.2090
@<TRIPOS>BOND
     1    31    30    1
     2    30    29    1
     3    29    22    1
     4     9    10    1
     5     9     8    1
     6    22    21    1
     7    22    17    1
     8    21    20    1
     9     8     4    1
    10     1    17    1
    11     1     2    1
    12    17    18    1
    13     3     2    1
    14     3     4    1
    15    11    12    1
    16    11     5    1
    17    28    27    1
    18     2     7    1
    19     4     5    1
    20    20    27    1
    21    20    19    1
    22    24    23    1
    23    18    19    1
    24    18    23    1
    25     7    15    1
    26     7     6    1
    27     5     6    1
    28    19    25    1
    29    15    16    1
    30     6    13    1
    31    14    13    1
    32    25    26    1
