@<TRIPOS>MOLECULE
/tmp/ewbell/vina_1gzc_1gzc_lig/vina/vina3.pdbqt
 31 32 0 0 0
SMALL
GASTEIGER

@<TRIPOS>ATOM
      1  O1        85.0110   43.5390   31.0530 O.3   487  INH487     -0.3480
      2  C1        83.8530   42.7630   30.6750 C.3   487  INH487      0.2920
      3  O5        82.7220   43.6480   30.6780 O.3   487  INH487     -0.3480
      4  C5        81.4960   43.0010   30.2660 C.3   487  INH487      0.1790
      5  C4        81.1800   41.8330   31.2060 C.3   487  INH487      0.1800
      6  C3        82.3530   40.8360   31.1900 C.3   487  INH487      0.1830
      7  C2        83.6570   41.6110   31.6390 C.3   487  INH487      0.2040
      8  C6        80.4020   44.0680   30.2870 C.3   487  INH487      0.1980
      9  O6        80.8610   45.1350   31.1290 O.3   487  INH487     -0.3980
     10  H11       81.4490   45.6970   30.6380 H     487  INH487      0.2090
     11  O4        80.9510   42.4000   32.4900 O.3   487  INH487     -0.3900
     12  H10       81.6420   42.1310   33.0820 H     487  INH487      0.2100
     13  O3        82.1280   39.7350   32.0680 O.3   487  INH487     -0.3900
     14  H9        82.1650   40.0360   32.9680 H     487  INH487      0.2100
     15  O2        84.8000   40.7210   31.6410 O.3   487  INH487     -0.3880
     16  H8        85.4690   41.0620   31.0580 H     487  INH487      0.2100
     17  C10       85.4860   44.5630   30.0910 C.3   487  INH487      0.1870
     18  C9        85.0930   45.9860   30.5230 C.3   487  INH487      0.1830
     19  C8        85.7410   47.0380   29.5810 C.3   487  INH487      0.2040
     20  C7        87.2520   46.8070   29.6180 C.3   487  INH487      0.2880
     21  O10       87.5350   45.4540   29.1350 O.3   487  INH487     -0.3490
     22  C11       87.0110   44.3950   30.0220 C.3   487  INH487      0.1800
     23  O9        83.6720   46.1750   30.5060 O.3   487  INH487     -0.3900
     24  H21       83.2460   45.4160   30.8850 H     487  INH487      0.2100
     25  O8        85.3790   48.3230   30.0480 O.3   487  INH487     -0.3880
     26  H20       85.7680   48.9850   29.4880 H     487  INH487      0.2100
     27  O7        87.8730   47.7390   28.7760 O.3   487  INH487     -0.3690
     28  H19       87.2110   48.2150   28.2880 H     487  INH487      0.2120
     29  C12       87.4020   43.0350   29.4090 C.3   487  INH487      0.1980
     30  O11       87.3030   41.9990   30.3780 O.3   487  INH487     -0.3980
     31  H22       86.4420   41.6030   30.3310 H     487  INH487      0.2090
@<TRIPOS>BOND
     1    28    27    1
     2    27    20    1
     3    21    20    1
     4    21    22    1
     5    29    22    1
     6    29    30    1
     7    26    25    1
     8    19    20    1
     9    19    25    1
    10    19    18    1
    11    22    17    1
    12    17    18    1
    13    17     1    1
    14     4     8    1
    15     4     3    1
    16     4     5    1
    17     8     9    1
    18    31    30    1
    19    23    18    1
    20    23    24    1
    21    10     9    1
    22     2     3    1
    23     2     1    1
    24     2     7    1
    25    16    15    1
    26     6     5    1
    27     6     7    1
    28     6    13    1
    29     5    11    1
    30     7    15    1
    31    13    14    1
    32    11    12    1
