@<TRIPOS>MOLECULE
/tmp/ewbell/vina_1gzc_1gzc_lig/vina/vina5.pdbqt
 31 32 0 0 0
SMALL
GASTEIGER

@<TRIPOS>ATOM
      1  O1        84.6410   41.5290   32.4810 O.3   487  INH487     -0.3480
      2  C1        83.7100   41.7770   31.4050 C.3   487  INH487      0.2920
      3  O5        83.9240   43.1230   30.9520 O.3   487  INH487     -0.3480
      4  C5        83.0810   43.4850   29.8340 C.3   487  INH487      0.1790
      5  C4        81.6060   43.3500   30.2260 C.3   487  INH487      0.1800
      6  C3        81.3280   41.9020   30.6710 C.3   487  INH487      0.1830
      7  C2        82.2880   41.5730   31.8840 C.3   487  INH487      0.2040
      8  C6        83.4460   44.9180   29.4480 C.3   487  INH487      0.1980
      9  O6        84.1290   45.5020   30.5670 O.3   487  INH487     -0.3980
     10  H11       83.5070   45.9800   31.1040 H     487  INH487      0.2090
     11  O4        81.3750   44.3010   31.2570 O.3   487  INH487     -0.3900
     12  H10       80.7460   44.9460   30.9570 H     487  INH487      0.2100
     13  O3        79.9730   41.7200   31.0730 O.3   487  INH487     -0.3900
     14  H9        79.4190   41.6610   30.3030 H     487  INH487      0.2100
     15  O2        82.0740   40.2170   32.3470 O.3   487  INH487     -0.3880
     16  H8        82.8150   39.9400   32.8730 H     487  INH487      0.2100
     17  C10       85.8680   40.7650   32.1560 C.3   487  INH487      0.1870
     18  C9        85.5640   39.5210   31.3030 C.3   487  INH487      0.1830
     19  C8        86.8840   38.8360   30.8500 C.3   487  INH487      0.2040
     20  C7        87.6990   39.8840   30.0920 C.3   487  INH487      0.2880
     21  O10       87.9930   40.9980   30.9960 O.3   487  INH487     -0.3490
     22  C11       86.7880   41.7460   31.4130 C.3   487  INH487      0.1800
     23  O9        84.7780   38.5610   32.0220 O.3   487  INH487     -0.3900
     24  H21       84.6600   37.7840   31.4880 H     487  INH487      0.2100
     25  O8        86.5440   37.7270   30.0410 O.3   487  INH487     -0.3880
     26  H20       86.0390   37.1050   30.5520 H     487  INH487      0.2100
     27  O7        88.9000   39.3020   29.6690 O.3   487  INH487     -0.3690
     28  H19       89.5080   39.9840   29.4050 H     487  INH487      0.2120
     29  C12       87.2460   42.8960   32.3330 C.3   487  INH487      0.1980
     30  O11       86.4450   44.0530   32.1290 O.3   487  INH487     -0.3980
     31  H22       86.7000   44.4760   31.3180 H     487  INH487      0.2090
@<TRIPOS>BOND
     1    28    27    1
     2     8     4    1
     3     8     9    1
     4    27    20    1
     5     4     5    1
     6     4     3    1
     7    25    26    1
     8    25    19    1
     9    20    19    1
    10    20    21    1
    11     5     6    1
    12     5    11    1
    13    14    13    1
    14     9    10    1
    15     6    13    1
    16     6     7    1
    17    19    18    1
    18     3     2    1
    19    12    11    1
    20    21    22    1
    21    18    23    1
    22    18    17    1
    23    31    30    1
    24     2     7    1
    25     2     1    1
    26    22    17    1
    27    22    29    1
    28    24    23    1
    29     7    15    1
    30    30    29    1
    31    17     1    1
    32    15    16    1
