@<TRIPOS>MOLECULE
/tmp/ewbell/vina_1gzc_1gzc_lig/vina/vina1.pdbqt
 31 32 0 0 0
SMALL
GASTEIGER

@<TRIPOS>ATOM
      1  O1        84.9940   40.6720   31.5920 O.3   487  INH487     -0.3480
      2  C1        83.8840   41.1020   30.7720 C.3   487  INH487      0.2920
      3  O5        84.2510   42.3560   30.1770 O.3   487  INH487     -0.3480
      4  C5        83.2380   42.8770   29.2850 C.3   487  INH487      0.1790
      5  C4        81.9270   43.0850   30.0500 C.3   487  INH487      0.1800
      6  C3        81.4760   41.7460   30.6610 C.3   487  INH487      0.1830
      7  C2        82.6310   41.2330   31.6130 C.3   487  INH487      0.2040
      8  C6        83.7830   44.1830   28.7090 C.3   487  INH487      0.1980
      9  O6        82.6670   44.9250   28.1980 O.3   487  INH487     -0.3980
     10  H11       82.9280   45.8260   28.0450 H     487  INH487      0.2090
     11  O4        82.1850   44.0840   31.0270 O.3   487  INH487     -0.3900
     12  H10       82.2610   43.6770   31.8820 H     487  INH487      0.2100
     13  O3        80.2700   41.8820   31.4080 O.3   487  INH487     -0.3900
     14  H9        80.4750   41.9350   32.3340 H     487  INH487      0.2100
     15  O2        82.2650   39.9690   32.2180 O.3   487  INH487     -0.3880
     16  H8        83.0410   39.4300   32.3230 H     487  INH487      0.2100
     17  C10       85.6270   39.3760   31.2530 C.3   487  INH487      0.1870
     18  C9        86.6680   39.5180   30.1290 C.3   487  INH487      0.1830
     19  C8        87.4210   38.1760   29.9110 C.3   487  INH487      0.2040
     20  C7        88.0500   37.7890   31.2510 C.3   487  INH487      0.2880
     21  O10       86.9840   37.6170   32.2400 O.3   487  INH487     -0.3490
     22  C11       86.2680   38.8700   32.5540 C.3   487  INH487      0.1800
     23  O9        86.0620   39.9050   28.8880 O.3   487  INH487     -0.3900
     24  H21       86.7390   40.0680   28.2420 H     487  INH487      0.2100
     25  O8        88.3870   38.3780   28.8990 O.3   487  INH487     -0.3880
     26  H20       89.1860   37.9170   29.1270 H     487  INH487      0.2100
     27  O7        88.7370   36.5800   31.0940 O.3   487  INH487     -0.3690
     28  H19       89.0400   36.2750   31.9420 H     487  INH487      0.2120
     29  C12       85.2020   38.5470   33.6200 C.3   487  INH487      0.1980
     30  O11       84.0200   38.0420   33.0140 O.3   487  INH487     -0.3980
     31  H22       83.2670   38.2780   33.5420 H     487  INH487      0.2090
@<TRIPOS>BOND
     1    10     9    1
     2     9     8    1
     3    24    23    1
     4     8     4    1
     5    23    18    1
     6    25    26    1
     7    25    19    1
     8     4     5    1
     9     4     3    1
    10    19    18    1
    11    19    20    1
    12     5     6    1
    13     5    11    1
    14    18    17    1
    15     3     2    1
    16     6    13    1
    17     6     7    1
    18     2     1    1
    19     2     7    1
    20    11    12    1
    21    27    20    1
    22    27    28    1
    23    20    21    1
    24    17     1    1
    25    17    22    1
    26    13    14    1
    27     7    15    1
    28    15    16    1
    29    21    22    1
    30    22    29    1
    31    30    31    1
    32    30    29    1
