@<TRIPOS>MOLECULE
/tmp/ewbell/vina_1gzc_1gzc_lig/vina/vina4.pdbqt
 31 32 0 0 0
SMALL
GASTEIGER

@<TRIPOS>ATOM
      1  O1        84.0470   40.6560   30.0610 O.3   487  INH487     -0.3480
      2  C1        85.3860   40.4130   30.5460 C.3   487  INH487      0.2920
      3  O5        86.2770   40.5320   29.4250 O.3   487  INH487     -0.3480
      4  C5        87.6670   40.3590   29.7860 C.3   487  INH487      0.1790
      5  C4        87.8760   38.9740   30.4070 C.3   487  INH487      0.1800
      6  C3        86.9710   38.8290   31.6440 C.3   487  INH487      0.1830
      7  C2        85.4740   39.0400   31.1790 C.3   487  INH487      0.2040
      8  C6        88.4830   40.5470   28.5080 C.3   487  INH487      0.1980
      9  O6        87.6330   40.2110   27.4030 O.3   487  INH487     -0.3980
     10  H11       88.0880   40.3890   26.5870 H     487  INH487      0.2090
     11  O4        87.5810   38.0270   29.3890 O.3   487  INH487     -0.3900
     12  H10       87.8310   37.1600   29.6820 H     487  INH487      0.2100
     13  O3        87.1040   37.5470   32.2530 O.3   487  INH487     -0.3900
     14  H9        87.3260   36.9030   31.5900 H     487  INH487      0.2100
     15  O2        84.5710   38.9170   32.3060 O.3   487  INH487     -0.3880
     16  H8        84.9000   38.2580   32.9060 H     487  INH487      0.2100
     17  C10       83.5320   42.0420   30.1540 C.3   487  INH487      0.1870
     18  C9        83.6200   42.7820   28.8080 C.3   487  INH487      0.1830
     19  C8        82.9280   44.1700   28.9040 C.3   487  INH487      0.2040
     20  C7        81.4850   43.9260   29.3480 C.3   487  INH487      0.2880
     21  O10       81.4990   43.2760   30.6600 O.3   487  INH487     -0.3490
     22  C11       82.0780   41.9170   30.6340 C.3   487  INH487      0.1800
     23  O9        84.9800   42.9800   28.3980 O.3   487  INH487     -0.3900
     24  H21       85.1440   42.4930   27.5990 H     487  INH487      0.2100
     25  O8        83.0070   44.7850   27.6330 O.3   487  INH487     -0.3880
     26  H20       82.7450   45.6960   27.7050 H     487  INH487      0.2100
     27  O7        80.8280   45.1580   29.4480 O.3   487  INH487     -0.3690
     28  H19       81.3410   45.7480   29.9890 H     487  INH487      0.2120
     29  C12       82.0030   41.3470   32.0650 C.3   487  INH487      0.1980
     30  O11       81.9700   39.9260   32.0410 O.3   487  INH487     -0.3980
     31  H22       81.7720   39.6290   31.1610 H     487  INH487      0.2090
@<TRIPOS>BOND
     1    10     9    1
     2     9     8    1
     3    24    23    1
     4    25    26    1
     5    25    19    1
     6    23    18    1
     7     8     4    1
     8    18    19    1
     9    18    17    1
    10    19    20    1
    11    20    27    1
    12    20    21    1
    13    11    12    1
    14    11     5    1
    15     3     4    1
    16     3     2    1
    17    27    28    1
    18     4     5    1
    19     1    17    1
    20     1     2    1
    21    17    22    1
    22     5     6    1
    23     2     7    1
    24    22    21    1
    25    22    29    1
    26    31    30    1
    27     7     6    1
    28     7    15    1
    29    14    13    1
    30     6    13    1
    31    30    29    1
    32    15    16    1
