@<TRIPOS>MOLECULE
./ligand/2oym_lig.pdb
 46 47 0 0 0
SMALL
GASTEIGER

@<TRIPOS>ATOM
      1  N1        23.7900   57.8450  -28.2380 N.4   441  INH441      0.2379
      2  C1        24.9040   57.4260  -27.4190 C.3   441  INH441      0.0305
      3  C2        24.4910   57.0810  -25.9990 C.3   441  INH441      0.0893
      4  O1        23.4210   56.1360  -26.0670 O.3   441  INH441     -0.3894
      5  H1        23.5010   57.0780  -28.8240 H     441  INH441      0.2022
      6  H2        23.0240   58.1200  -27.6430 H     441  INH441      0.2022
      7  H3        25.3540   56.5220  -27.8540 H     441  INH441      0.0900
      8  H4        24.1540   57.9890  -25.4770 H     441  INH441      0.0614
      9  H5        25.3430   56.6420  -25.4590 H     441  INH441      0.0614
     10  H6        23.1470   55.9060  -25.1870 H     441  INH441      0.2097
     11  N2        25.2750   52.8330  -35.4470 N.pl3 441  INH441     -0.3360
     12  C3        24.6690   57.5440  -32.3470 C.2   441  INH441      0.2443
     13  C4        24.1070   55.1120  -32.8110 C.ar  441  INH441     -0.0479
     14  C5        24.2660   53.9600  -33.5690 C.ar  441  INH441     -0.0400
     15  C6        25.1150   53.9530  -34.6800 C.ar  441  INH441      0.0292
     16  O2        25.3250   58.5110  -32.7080 O.2   441  INH441     -0.2702
     17  C7        24.8110   56.2730  -33.1330 C.ar  441  INH441      0.0368
     18  C8        26.1610   52.8410  -36.6020 C.3   441  INH441      0.0004
     19  C9        24.5750   51.6060  -35.1180 C.3   441  INH441      0.0004
     20  C10       25.8000   55.1190  -35.0010 C.ar  441  INH441     -0.0400
     21  C11       25.6530   56.2640  -34.2340 C.ar  441  INH441     -0.0479
     22  N3        23.9110   57.6250  -31.2440 N.am  441  INH441     -0.3059
     23  C12       23.6830   58.8600  -30.5000 C.3   441  INH441      0.0573
     24  C13       24.1770   58.9690  -29.0740 C.3   441  INH441      0.0228
     25  C14       25.8960   58.5690  -27.5330 C.3   441  INH441      0.1307
     26  O3        27.2480   58.1760  -27.2870 O.3   441  INH441     -0.3833
     27  C15       25.6790   59.0260  -28.9600 C.3   441  INH441      0.1300
     28  O4        26.2270   60.3270  -29.2000 O.3   441  INH441     -0.3834
     29  H7        23.4310   55.1100  -31.9630 H     441  INH441      0.0626
     30  H8        23.7280   53.0590  -33.2980 H     441  INH441      0.0636
     31  H9        26.1490   51.8500  -37.0800 H     441  INH441      0.0428
     32  H10       27.1850   53.0790  -36.2770 H     441  INH441      0.0428
     33  H11       25.8190   53.5990  -37.3210 H     441  INH441      0.0428
     34  H12       23.9520   51.7670  -34.2260 H     441  INH441      0.0428
     35  H13       25.3060   50.8100  -34.9150 H     441  INH441      0.0428
     36  H14       23.9360   51.3110  -35.9630 H     441  INH441      0.0428
     37  H15       26.4580   55.1330  -35.8620 H     441  INH441      0.0636
     38  H16       26.2020   57.1610  -34.4980 H     441  INH441      0.0626
     39  H17       23.4760   56.7890  -30.9110 H     441  INH441      0.1492
     40  H18       22.5960   59.0240  -30.4760 H     441  INH441      0.0519
     41  H19       24.1630   59.6700  -31.0680 H     441  INH441      0.0519
     42  H20       23.7510   59.8910  -28.6520 H     441  INH441      0.0893
     43  H21       25.6360   59.3720  -26.8270 H     441  INH441      0.0679
     44  H22       27.8170   58.9320  -27.3730 H     441  INH441      0.2102
     45  H23       26.1420   58.3220  -29.6670 H     441  INH441      0.0679
     46  H24       26.0690   60.5740  -30.1040 H     441  INH441      0.2102
@<TRIPOS>BOND
     1     1     2    1
     2     1    24    1
     3     1     6    1
     4     1     5    1
     5     2     3    1
     6     2     7    1
     7     2    25    1
     8     3     9    1
     9     3     8    1
    10     3     4    1
    11     4    10    1
    12    11    15    1
    13    11    19    1
    14    11    18    1
    15    12    22   am
    16    12    17    1
    17    12    16    2
    18    13    17   ar
    19    13    29    1
    20    13    14   ar
    21    14    30    1
    22    14    15   ar
    23    15    20   ar
    24    17    21   ar
    25    18    33    1
    26    18    32    1
    27    18    31    1
    28    19    36    1
    29    19    35    1
    30    19    34    1
    31    20    37    1
    32    20    21   ar
    33    21    38    1
    34    22    23    1
    35    22    39    1
    36    23    24    1
    37    23    41    1
    38    23    40    1
    39    24    27    1
    40    24    42    1
    41    25    43    1
    42    25    27    1
    43    25    26    1
    44    26    44    1
    45    27    45    1
    46    27    28    1
    47    28    46    1
