@<TRIPOS>MOLECULE
/tmp/ewbell/vina_2oym_2oym_lig/vina/vina1.pdbqt
 28 29 0 0 0
SMALL
GASTEIGER

@<TRIPOS>ATOM
      1  N1        24.7890   57.5210  -28.9730 N.4   441  INH441     -0.0580
      2  C1        25.5390   58.1010  -27.8830 C.3   441  INH441      0.2400
      3  H1        25.3150   56.7570  -29.3690 H     441  INH441      0.2780
      4  H2        23.9080   57.1770  -28.6260 H     441  INH441      0.2780
      5  C13       24.5440   58.5190  -30.0010 C.3   441  INH441      0.2350
      6  C14       25.4430   59.5960  -28.1240 C.3   441  INH441      0.1810
      7  C15       25.4500   59.6670  -29.6360 C.3   441  INH441      0.1810
      8  C12       24.7580   58.0040  -31.4070 C.3   441  INH441      0.1580
      9  N3        24.2980   58.8020  -32.5400 N.am  441  INH441     -0.3550
     10  C3        23.9700   58.2890  -33.7340 C.2   441  INH441      0.2510
     11  O2        23.6050   59.0300  -34.6360 O.2   441  INH441     -0.2680
     12  H17       24.2240   59.7910  -32.4170 H     441  INH441      0.1620
     13  C7        24.1020   56.8260  -34.0440 C.ar  441  INH441      0.0320
     14  C4        25.3090   56.2550  -34.4510 C.ar  441  INH441      0.0190
     15  C5        25.3870   54.8960  -34.7210 C.ar  441  INH441      0.0300
     16  C6        24.2650   54.0760  -34.5670 C.ar  441  INH441      0.0290
     17  C10       23.0730   54.6520  -34.1470 C.ar  441  INH441      0.0300
     18  C11       22.9910   56.0120  -33.8930 C.ar  441  INH441      0.0190
     19  N2        24.3250   52.7330  -34.8170 N.pl3 441  INH441     -0.3900
     20  C9        23.7070   51.7850  -33.9090 C.3   441  INH441      0.1490
     21  C8        25.0200   52.2230  -35.9890 C.3   441  INH441      0.1490
     22  O4        24.9980   60.9360  -30.1200 O.3   441  INH441     -0.3910
     23  H24       24.9270   60.9060  -31.0680 H     441  INH441      0.2100
     24  C2        25.0450   57.6420  -26.5220 C.3   441  INH441      0.1990
     25  O1        23.9780   56.7140  -26.7300 O.3   441  INH441     -0.3990
     26  H6        24.0110   56.0420  -26.0590 H     441  INH441      0.2090
     27  O3        26.5160   60.3370  -27.5390 O.3   441  INH441     -0.3910
     28  H22       26.6100   61.1670  -27.9930 H     441  INH441      0.2100
@<TRIPOS>BOND
     1    21    19    1
     2    19    16    1
     3    19    20    1
     4    15    16   ar
     5    15    14   ar
     6    11    10    2
     7    16    17   ar
     8    14    13   ar
     9    17    18   ar
    10    13    18   ar
    11    13    10    1
    12    10     9   am
    13     9    12    1
    14     9     8    1
    15     8     5    1
    16    23    22    1
    17    22     7    1
    18     5     7    1
    19     5     1    1
    20     7     6    1
    21     3     1    1
    22     1     4    1
    23     1     2    1
    24     6     2    1
    25     6    27    1
    26    28    27    1
    27     2    24    1
    28    25    24    1
    29    25    26    1
