@<TRIPOS>MOLECULE
/tmp/ewbell/vina_2oym_2oym_lig/vina/vina3.pdbqt
 28 29 0 0 0
SMALL
GASTEIGER

@<TRIPOS>ATOM
      1  N1        25.1370   57.8180  -29.4490 N.4   441  INH441     -0.0580
      2  C1        25.7270   58.5480  -28.3500 C.3   441  INH441      0.2400
      3  H1        25.7930   57.1260  -29.7780 H     441  INH441      0.2780
      4  H2        24.2970   57.3610  -29.1340 H     441  INH441      0.2780
      5  C13       24.8120   58.7260  -30.5370 C.3   441  INH441      0.2350
      6  C14       25.4270   60.0000  -28.6680 C.3   441  INH441      0.1810
      7  C15       25.5150   60.0110  -30.1800 C.3   441  INH441      0.1810
      8  C12       25.1850   58.1920  -31.9020 C.3   441  INH441      0.1580
      9  N3        24.7140   58.8890  -33.0960 N.am  441  INH441     -0.3550
     10  C3        24.2480   58.2700  -34.1900 C.2   441  INH441      0.2510
     11  O2        23.8850   58.9280  -35.1550 O.2   441  INH441     -0.2680
     12  H17       24.7410   59.8880  -33.0970 H     441  INH441      0.1620
     13  C7        24.2210   56.7740  -34.3160 C.ar  441  INH441      0.0320
     14  C4        23.1250   56.0090  -33.9110 C.ar  441  INH441      0.0190
     15  C5        23.1410   54.6290  -34.0520 C.ar  441  INH441      0.0300
     16  C6        24.2440   53.9860  -34.6230 C.ar  441  INH441      0.0290
     17  C10       25.3230   54.7590  -35.0370 C.ar  441  INH441      0.0300
     18  C11       25.3130   56.1350  -34.8810 C.ar  441  INH441      0.0190
     19  N2        24.2740   52.6290  -34.7820 N.pl3 441  INH441     -0.3900
     20  C9        24.9120   52.0350  -35.9420 C.3   441  INH441      0.1490
     21  C8        23.6550   51.7500  -33.8010 C.3   441  INH441      0.1490
     22  O4        24.9120   61.1770  -30.7490 O.3   441  INH441     -0.3910
     23  H24       24.9050   61.0990  -31.6970 H     441  INH441      0.2100
     24  C2        25.2230   58.0760  -26.9970 C.3   441  INH441      0.1990
     25  O1        26.2030   57.1930  -26.4450 O.3   441  INH441     -0.3990
     26  H6        26.0360   57.0780  -25.5160 H     441  INH441      0.2090
     27  O3        26.3420   60.9160  -28.0630 O.3   441  INH441     -0.3910
     28  H22       27.1810   60.8620  -28.5060 H     441  INH441      0.2100
@<TRIPOS>BOND
     1    20    19    1
     2    11    10    2
     3    17    18   ar
     4    17    16   ar
     5    18    13   ar
     6    19    16    1
     7    19    21    1
     8    16    15   ar
     9    13    10    1
    10    13    14   ar
    11    10     9   am
    12    15    14   ar
    13    12     9    1
    14     9     8    1
    15     8     5    1
    16    23    22    1
    17    22     7    1
    18     5     7    1
    19     5     1    1
    20     7     6    1
    21     3     1    1
    22     1     4    1
    23     1     2    1
    24     6     2    1
    25     6    27    1
    26    28    27    1
    27     2    24    1
    28    24    25    1
    29    25    26    1
