@<TRIPOS>MOLECULE
/tmp/ewbell/vina_2oym_2oym_lig/vina/vina4.pdbqt
 28 29 0 0 0
SMALL
GASTEIGER

@<TRIPOS>ATOM
      1  N1        25.1240   59.9500  -30.2680 N.4   441  INH441     -0.0580
      2  C1        25.1200   60.3410  -28.8760 C.3   441  INH441      0.2400
      3  H1        24.3220   60.3530  -30.7280 H     441  INH441      0.2780
      4  H2        25.9660   60.2870  -30.7060 H     441  INH441      0.2780
      5  C13       25.0680   58.5020  -30.3820 C.3   441  INH441      0.2350
      6  C14       25.4140   59.0530  -28.1310 C.3   441  INH441      0.1810
      7  C15       24.7130   58.0270  -28.9970 C.3   441  INH441      0.1810
      8  C12       24.1130   58.0180  -31.4510 C.3   441  INH441      0.1580
      9  N3        23.9320   58.8120  -32.6620 N.am  441  INH441     -0.3550
     10  C3        23.8320   58.2890  -33.8930 C.2   441  INH441      0.2510
     11  O2        23.6940   59.0270  -34.8590 O.2   441  INH441     -0.2680
     12  H17       23.8780   59.8060  -32.5690 H     441  INH441      0.1620
     13  C7        23.9590   56.8160  -34.1530 C.ar  441  INH441      0.0320
     14  C4        22.9210   55.9190  -33.8980 C.ar  441  INH441      0.0190
     15  C5        23.0810   54.5660  -34.1590 C.ar  441  INH441      0.0300
     16  C6        24.2750   54.0850  -34.7030 C.ar  441  INH441      0.0290
     17  C10       25.2980   54.9880  -34.9680 C.ar  441  INH441      0.0300
     18  C11       25.1430   56.3370  -34.6920 C.ar  441  INH441      0.0190
     19  N2        24.4480   52.7560  -34.9800 N.pl3 441  INH441     -0.3900
     20  C9        23.8390   51.7430  -34.1400 C.3   441  INH441      0.1490
     21  C8        25.2570   52.3300  -36.1120 C.3   441  INH441      0.1490
     22  O4        25.1490   56.6930  -28.7150 O.3   441  INH441     -0.3910
     23  H24       25.9670   56.5250  -29.1700 H     441  INH441      0.2100
     24  C2        26.0820   61.4790  -28.5840 C.3   441  INH441      0.1990
     25  O1        27.1080   60.9800  -27.7240 O.3   441  INH441     -0.3990
     26  H6        26.7440   60.3140  -27.1520 H     441  INH441      0.2090
     27  O3        24.9310   59.0500  -26.7860 O.3   441  INH441     -0.3910
     28  H22       24.0750   59.4640  -26.7570 H     441  INH441      0.2100
@<TRIPOS>BOND
     1    21    19    1
     2    19    16    1
     3    19    20    1
     4    17    16   ar
     5    17    18   ar
     6    11    10    2
     7    16    15   ar
     8    18    13   ar
     9    15    14   ar
    10    13    14   ar
    11    13    10    1
    12    10     9   am
    13     9    12    1
    14     9     8    1
    15     8     5    1
    16     3     1    1
    17     4     1    1
    18     5     1    1
    19     5     7    1
    20     1     2    1
    21    23    22    1
    22     7    22    1
    23     7     6    1
    24     2    24    1
    25     2     6    1
    26    24    25    1
    27     6    27    1
    28    25    26    1
    29    27    28    1
