@<TRIPOS>MOLECULE
/tmp/ewbell/vina_2oym_2oym_lig/vina/vina5.pdbqt
 28 29 0 0 0
SMALL
GASTEIGER

@<TRIPOS>ATOM
      1  N1        24.7710   57.7760  -32.1150 N.4   441  INH441     -0.0580
      2  C1        24.5950   59.0070  -32.8510 C.3   441  INH441      0.2400
      3  H1        25.7300   57.4740  -32.1960 H     441  INH441      0.2780
      4  H2        24.5510   57.9330  -31.1450 H     441  INH441      0.2780
      5  C13       23.8960   56.7440  -32.6460 C.3   441  INH441      0.2350
      6  C14       23.3150   58.7880  -33.6350 C.3   441  INH441      0.1810
      7  C15       23.3940   57.3090  -33.9510 C.3   441  INH441      0.1810
      8  C12       24.5680   55.3960  -32.7900 C.3   441  INH441      0.1580
      9  N3        23.8030   54.1830  -32.5180 N.am  441  INH441     -0.3550
     10  C3        23.7910   53.1090  -33.3210 C.2   441  INH441      0.2510
     11  O2        23.1120   52.1350  -33.0260 O.2   441  INH441     -0.2680
     12  H17       23.2550   54.1510  -31.6830 H     441  INH441      0.1620
     13  C7        24.5290   53.0750  -34.6280 C.ar  441  INH441      0.0320
     14  C4        24.5450   51.9460  -35.4480 C.ar  441  INH441      0.0190
     15  C5        25.2350   51.9610  -36.6510 C.ar  441  INH441      0.0300
     16  C6        25.9060   53.1140  -37.0710 C.ar  441  INH441      0.0290
     17  C10       25.8710   54.2380  -36.2530 C.ar  441  INH441      0.0300
     18  C11       25.1950   54.2160  -35.0440 C.ar  441  INH441      0.0190
     19  N2        26.5820   53.1540  -38.2590 N.pl3 441  INH441     -0.3900
     20  C9        27.7050   54.0520  -38.4400 C.3   441  INH441      0.1490
     21  C8        26.1820   52.3060  -39.3720 C.3   441  INH441      0.1490
     22  O4        22.1310   56.7760  -34.3630 O.3   441  INH441     -0.3910
     23  H24       21.4490   57.0930  -33.7820 H     441  INH441      0.2100
     24  C2        24.5900   60.2310  -31.9520 C.3   441  INH441      0.1990
     25  O1        24.2880   61.3700  -32.7600 O.3   441  INH441     -0.3990
     26  H6        25.0270   61.5600  -33.3270 H     441  INH441      0.2090
     27  O3        23.2250   59.5920  -34.8130 O.3   441  INH441     -0.3910
     28  H22       23.4260   59.0590  -35.5750 H     441  INH441      0.2100
@<TRIPOS>BOND
     1    21    19    1
     2    20    19    1
     3    19    16    1
     4    16    15   ar
     5    16    17   ar
     6    15    14   ar
     7    17    18   ar
     8    28    27    1
     9    14    13   ar
    10    18    13   ar
    11    27     6    1
    12    13    10    1
    13    22     7    1
    14    22    23    1
    15     7     6    1
    16     7     5    1
    17     6     2    1
    18    26    25    1
    19    10    11    2
    20    10     9   am
    21     2     1    1
    22     2    24    1
    23     8     5    1
    24     8     9    1
    25    25    24    1
    26     5     1    1
    27     9    12    1
    28     3     1    1
    29     1     4    1
