@<TRIPOS>MOLECULE
/tmp/ewbell/vina_2oym_2oym_lig/vina/vina2.pdbqt
 28 29 0 0 0
SMALL
GASTEIGER

@<TRIPOS>ATOM
      1  N1        23.6670   57.5720  -31.6540 N.4   441  INH441     -0.0580
      2  C1        24.5760   58.6810  -31.4710 C.3   441  INH441      0.2400
      3  H1        24.1340   56.7150  -31.4000 H     441  INH441      0.2780
      4  H2        22.8610   57.7010  -31.0650 H     441  INH441      0.2780
      5  C13       23.2420   57.4960  -33.0420 C.3   441  INH441      0.2350
      6  C14       24.4180   59.5000  -32.7380 C.3   441  INH441      0.1810
      7  C15       24.1770   58.4240  -33.7750 C.3   441  INH441      0.1810
      8  C12       23.2320   56.0870  -33.5940 C.3   441  INH441      0.1580
      9  N3        23.2020   54.9570  -32.6710 N.am  441  INH441     -0.3550
     10  C3        23.7510   53.7620  -32.9320 C.2   441  INH441      0.2510
     11  O2        23.6710   52.8610  -32.1080 O.2   441  INH441     -0.2680
     12  H17       22.7440   55.0810  -31.7920 H     441  INH441      0.1620
     13  C7        24.4090   53.4500  -34.2450 C.ar  441  INH441      0.0320
     14  C4        25.2760   54.3420  -34.8780 C.ar  441  INH441      0.0190
     15  C5        25.8660   54.0090  -36.0880 C.ar  441  INH441      0.0300
     16  C6        25.6210   52.7660  -36.6800 C.ar  441  INH441      0.0290
     17  C10       24.7680   51.8780  -36.0330 C.ar  441  INH441      0.0300
     18  C11       24.1660   52.2190  -34.8330 C.ar  441  INH441      0.0190
     19  N2        26.2030   52.4130  -37.8660 N.pl3 441  INH441     -0.3900
     20  C9        25.4990   51.5680  -38.8110 C.3   441  INH441      0.1490
     21  C8        27.5450   52.8660  -38.2010 C.3   441  INH441      0.1490
     22  O4        23.6310   58.9530  -34.9880 O.3   441  INH441     -0.3910
     23  H24       23.0220   58.3260  -35.3600 H     441  INH441      0.2100
     24  C2        24.3180   59.4430  -30.1830 C.3   441  INH441      0.1990
     25  O1        23.6630   58.5590  -29.2710 O.3   441  INH441     -0.3990
     26  H6        24.2130   57.8000  -29.1170 H     441  INH441      0.2090
     27  O3        25.5600   60.3030  -33.0420 O.3   441  INH441     -0.3910
     28  H22       26.3170   59.9640  -32.5770 H     441  INH441      0.2100
@<TRIPOS>BOND
     1    20    19    1
     2    21    19    1
     3    19    16    1
     4    16    15   ar
     5    16    17   ar
     6    15    14   ar
     7    17    18   ar
     8    23    22    1
     9    22     7    1
    10    14    13   ar
    11    18    13   ar
    12    13    10    1
    13     7     5    1
    14     7     6    1
    15     8     5    1
    16     8     9    1
    17    27     6    1
    18    27    28    1
    19     5     1    1
    20    10     9   am
    21    10    11    2
    22     6     2    1
    23     9    12    1
    24     1     2    1
    25     1     3    1
    26     1     4    1
    27     2    24    1
    28    24    25    1
    29    25    26    1
