@<TRIPOS>MOLECULE
./ligand/1ow4_lig.pdb
 33 35 0 0 0
SMALL
GASTEIGER

@<TRIPOS>ATOM
      1  C1         0.9260   -7.4280    6.1550 C.ar  122  INH122      0.0410
      2  C2         2.2180   -7.0360    5.8810 C.ar  122  INH122     -0.0399
      3  C3         2.4990   -6.0620    4.9330 C.ar  122  INH122     -0.0594
      4  C4         1.4750   -5.4250    4.2510 C.ar  122  INH122     -0.0539
      5  C5         0.1790   -5.7790    4.5110 C.ar  122  INH122     -0.0143
      6  C6        -0.8070   -5.0870    3.8090 C.ar  122  INH122     -0.0539
      7  C7        -2.1290   -5.3720    4.0000 C.ar  122  INH122     -0.0593
      8  C8        -2.4970   -6.3350    4.9160 C.ar  122  INH122     -0.0357
      9  N1         0.6510   -8.4480    7.0330 N.pl3 122  INH122     -0.3140
     10  S1        -2.2100   -8.2990    6.7310 S.3   122  INH122      0.0415
     11  C9        -1.5290   -7.0150    5.6370 C.ar  122  INH122      0.1051
     12  C10       -0.1430   -6.7580    5.4580 C.ar  122  INH122      0.0286
     13  C11        1.2240   -9.4340    7.7200 C.ar  122  INH122      0.0313
     14  C12        0.4990   -9.7660    8.8940 C.ar  122  INH122     -0.0405
     15  C13        0.9370  -10.7070    9.8200 C.ar  122  INH122     -0.0600
     16  C14        2.1250  -11.3810    9.5480 C.ar  122  INH122     -0.0616
     17  C15        2.8580  -11.1000    8.4040 C.ar  122  INH122     -0.0600
     18  C16        2.4210  -10.0980    7.4900 C.ar  122  INH122     -0.0405
     19  O1        -1.4810   -9.5900    6.4540 O.3   122  INH122     -0.0650
     20  O2        -2.1090   -7.9110    8.1640 O.3   122  INH122     -0.0650
     21  O3        -3.6120   -8.6540    6.3080 O.3   122  INH122     -0.0650
     22  H1         3.0360   -7.5000    6.4200 H     122  INH122      0.0636
     23  H2         3.5290   -5.7970    4.7240 H     122  INH122      0.0618
     24  H3         1.6980   -4.6560    3.5200 H     122  INH122      0.0624
     25  H4        -0.5210   -4.3150    3.1040 H     122  INH122      0.0624
     26  H5        -2.8870   -4.8430    3.4330 H     122  INH122      0.0618
     27  H6        -3.5460   -6.5600    5.0720 H     122  INH122      0.0637
     28  H7        -0.3600   -8.4510    7.2300 H     122  INH122      0.1522
     29  H8        -0.4420   -9.2610    9.0780 H     122  INH122      0.0636
     30  H9         0.3730  -10.9090   10.7230 H     122  INH122      0.0618
     31  H10        2.4820  -12.1350   10.2400 H     122  INH122      0.0618
     32  H11        3.7720  -11.6480    8.2040 H     122  INH122      0.0618
     33  H12        3.0200   -9.8560    6.6200 H     122  INH122      0.0636
@<TRIPOS>BOND
     1     1    12   ar
     2     1     9    1
     3     1     2   ar
     4     2    22    1
     5     2     3   ar
     6     3    23    1
     7     3     4   ar
     8     4    24    1
     9     4     5   ar
    10     5    12   ar
    11     5     6   ar
    12     6    25    1
    13     6     7   ar
    14     7    26    1
    15     7     8   ar
    16     8    27    1
    17     8    11   ar
    18     9    28    1
    19     9    13    1
    20    10    11    1
    21    10    21    1
    22    10    20    1
    23    10    19    1
    24    11    12   ar
    25    13    18   ar
    26    13    14   ar
    27    14    29    1
    28    14    15   ar
    29    15    30    1
    30    15    16   ar
    31    16    31    1
    32    16    17   ar
    33    17    32    1
    34    17    18   ar
    35    18    33    1
