@<TRIPOS>MOLECULE
/tmp/ewbell/vina_1ow4_1ow4_lig/vina/vina3.pdbqt
 25 27 0 0 0
SMALL
GASTEIGER

@<TRIPOS>ATOM
      1  C1        -0.3700   -7.9390    6.4180 C.ar  122  INH122      0.0450
      2  C2        -1.5400   -8.5670    6.7880 C.ar  122  INH122      0.0300
      3  C3        -2.7770   -8.1220    6.3450 C.ar  122  INH122      0.0030
      4  C4        -2.8720   -7.0430    5.4810 C.ar  122  INH122      0.0120
      5  C5        -1.7280   -6.4070    5.0810 C.ar  122  INH122     -0.0220
      6  C6        -1.8870   -5.3420    4.1940 C.ar  122  INH122      0.0120
      7  C7        -0.8030   -4.6460    3.7410 C.ar  122  INH122      0.0020
      8  C8         0.4640   -5.0130    4.1400 C.ar  122  INH122      0.0240
      9  C9         0.6390   -6.0830    5.0030 C.ar  122  INH122      0.0690
     10  C10       -0.4630   -6.8250    5.5080 C.ar  122  INH122      0.0220
     11  N1         0.8480   -8.3270    6.9200 N.pl3 122  INH122     -0.3550
     12  H7         1.5920   -7.8770    6.3680 H     122  INH122      0.1660
     13  C11        1.4120   -9.0780    7.8640 C.ar  122  INH122      0.0320
     14  C16        1.0610   -9.2390    9.1970 C.ar  122  INH122      0.0290
     15  C15        1.7940  -10.1480   10.0140 C.ar  122  INH122      0.0020
     16  C14        2.8190  -10.9130    9.4750 C.ar  122  INH122      0.0000
     17  C13        3.1710  -10.7950    8.1330 C.ar  122  INH122      0.0020
     18  C12        2.4780   -9.8680    7.3610 C.ar  122  INH122      0.0290
     19  S1         2.3740   -6.3580    5.4740 S.3   122  INH122      0.1160
     20  O3         2.8410   -7.7030    4.9820 O.3   122  INH122     -0.3040
     21  H          3.5770   -8.0120    5.5330 H     122  INH122      0.2300
     22  O2         2.5860   -6.1610    6.9330 O.3   122  INH122     -0.3040
     23  H          3.4030   -5.6580    7.0770 H     122  INH122      0.2300
     24  O1         3.2370   -5.4280    4.6580 O.3   122  INH122     -0.3040
     25  H          2.7090   -4.6670    4.3690 H     122  INH122      0.2300
@<TRIPOS>BOND
     1     7     8   ar
     2     7     6   ar
     3     8     9   ar
     4     6     5   ar
     5    25    24    1
     6    24    19    1
     7    20    19    1
     8    20    21    1
     9     9    19    1
    10     9    10   ar
    11     5     4   ar
    12     5    10   ar
    13    19    22    1
    14     4     3   ar
    15    10     1   ar
    16     3     2   ar
    17    12    11    1
    18     1     2   ar
    19     1    11    1
    20    11    13    1
    21    22    23    1
    22    18    13   ar
    23    18    17   ar
    24    13    14   ar
    25    17    16   ar
    26    14    15   ar
    27    16    15   ar
