@<TRIPOS>MOLECULE
/tmp/ewbell/vina_1ow4_1ow4_lig/vina/vina2.pdbqt
 25 27 0 0 0
SMALL
GASTEIGER

@<TRIPOS>ATOM
      1  C1        -1.1060   -6.7090    5.3300 C.ar  122  INH122      0.0450
      2  C2        -1.8000   -5.8040    4.5590 C.ar  122  INH122      0.0300
      3  C3        -1.1540   -4.7950    3.8580 C.ar  122  INH122      0.0030
      4  C4         0.2270   -4.6880    3.8880 C.ar  122  INH122      0.0120
      5  C5         0.9490   -5.5820    4.6320 C.ar  122  INH122     -0.0220
      6  C6         2.3350   -5.4360    4.6050 C.ar  122  INH122      0.0120
      7  C7         3.1390   -6.2790    5.3170 C.ar  122  INH122      0.0020
      8  C8         2.5790   -7.3030    6.0510 C.ar  122  INH122      0.0240
      9  C9         1.2040   -7.4740    6.0700 C.ar  122  INH122      0.0690
     10  C10        0.3320   -6.6100    5.3530 C.ar  122  INH122      0.0220
     11  N1        -1.7490   -7.6570    6.0890 N.pl3 122  INH122     -0.3550
     12  H7        -1.0510   -8.1490    6.6640 H     122  INH122      0.1660
     13  C11       -2.9520   -8.1660    6.3450 C.ar  122  INH122      0.0320
     14  C16       -3.3990   -8.8740    7.4520 C.ar  122  INH122      0.0290
     15  C15       -4.7630   -9.2800    7.5250 C.ar  122  INH122      0.0020
     16  C14       -5.6590   -8.9280    6.5260 C.ar  122  INH122      0.0000
     17  C13       -5.2450   -8.1910    5.4190 C.ar  122  INH122      0.0020
     18  C12       -3.9000   -7.8440    5.3400 C.ar  122  INH122      0.0290
     19  S1         0.6570   -8.8250    7.1580 S.3   122  INH122      0.1160
     20  O3        -0.0510   -9.8860    6.3560 O.3   122  INH122     -0.3040
     21  H          0.1100   -9.7380    5.4110 H     122  INH122      0.2300
     22  O2        -0.1480   -8.3190    8.3020 O.3   122  INH122     -0.3040
     23  H          0.3170   -8.5050    9.1330 H     122  INH122      0.2300
     24  O1         1.8780   -9.5750    7.6280 O.3   122  INH122     -0.3040
     25  H          1.8880  -10.4600    7.2320 H     122  INH122      0.2300
@<TRIPOS>BOND
     1     3     4   ar
     2     3     2   ar
     3     4     5   ar
     4     2     1   ar
     5     6     5   ar
     6     6     7   ar
     7     5    10   ar
     8     7     8   ar
     9     1    10   ar
    10     1    11    1
    11    18    17   ar
    12    18    13   ar
    13    10     9   ar
    14    21    20    1
    15    17    16   ar
    16     8     9   ar
    17     9    19    1
    18    11    13    1
    19    11    12    1
    20    13    14   ar
    21    20    19    1
    22    16    15   ar
    23    19    24    1
    24    19    22    1
    25    25    24    1
    26    14    15   ar
    27    22    23    1
