@<TRIPOS>MOLECULE
/tmp/ewbell/vina_1ow4_1ow4_lig/vina/vina4.pdbqt
 25 27 0 0 0
SMALL
GASTEIGER

@<TRIPOS>ATOM
      1  C1        -0.3390   -7.7210    6.2600 C.ar  122  INH122      0.0450
      2  C2        -0.0850   -8.7560    7.1340 C.ar  122  INH122      0.0300
      3  C3         1.2080   -9.0950    7.5070 C.ar  122  INH122      0.0030
      4  C4         2.2910   -8.3740    7.0310 C.ar  122  INH122      0.0120
      5  C5         2.0730   -7.3300    6.1740 C.ar  122  INH122     -0.0220
      6  C6         3.2010   -6.6300    5.7480 C.ar  122  INH122      0.0120
      7  C7         3.0840   -5.5740    4.8900 C.ar  122  INH122      0.0020
      8  C8         1.8350   -5.1760    4.4600 C.ar  122  INH122      0.0240
      9  C9         0.7040   -5.8480    4.8930 C.ar  122  INH122      0.0690
     10  C10        0.7840   -6.9600    5.7740 C.ar  122  INH122      0.0220
     11  N1        -1.6110   -7.4360    5.8270 N.pl3 122  INH122     -0.3550
     12  H7        -1.5650   -6.6530    5.1600 H     122  INH122      0.1660
     13  C11       -2.8820   -7.8100    5.9620 C.ar  122  INH122      0.0320
     14  C16       -3.9520   -7.6490    5.0940 C.ar  122  INH122      0.0290
     15  C15       -5.2270   -8.1840    5.4390 C.ar  122  INH122      0.0020
     16  C14       -5.3940   -8.9110    6.6090 C.ar  122  INH122      0.0000
     17  C13       -4.3300   -9.1150    7.4840 C.ar  122  INH122      0.0020
     18  C12       -3.1040   -8.5450    7.1560 C.ar  122  INH122      0.0290
     19  S1        -0.8360   -5.2250    4.1510 S.3   122  INH122      0.1160
     20  O3        -1.7790   -4.7530    5.2270 O.3   122  INH122     -0.3040
     21  H         -2.4050   -5.4610    5.4430 H     122  INH122      0.2300
     22  O2        -1.4470   -6.2230    3.2320 O.3   122  INH122     -0.3040
     23  H         -1.5810   -7.0590    3.7050 H     122  INH122      0.2300
     24  O1        -0.5270   -3.9320    3.4390 O.3   122  INH122     -0.3040
     25  H          0.2300   -3.5010    3.8650 H     122  INH122      0.2300
@<TRIPOS>BOND
     1    22    23    1
     2    22    19    1
     3    24    25    1
     4    24    19    1
     5    19     9    1
     6    19    20    1
     7     8     7   ar
     8     8     9   ar
     9     7     6   ar
    10     9    10   ar
    11    14    15   ar
    12    14    13   ar
    13    12    11    1
    14    20    21    1
    15    15    16   ar
    16     6     5   ar
    17    10     5   ar
    18    10     1   ar
    19    11    13    1
    20    11     1    1
    21    13    18   ar
    22     5     4   ar
    23     1     2   ar
    24    16    17   ar
    25     4     3   ar
    26     2     3   ar
    27    18    17   ar
