@<TRIPOS>MOLECULE
/tmp/ewbell/vina_1ow4_1ow4_lig/vina/vina1.pdbqt
 25 27 0 0 0
SMALL
GASTEIGER

@<TRIPOS>ATOM
      1  C1         1.3150   -6.9900    6.2350 C.ar  122  INH122      0.0450
      2  C2         2.5630   -6.4830    5.9440 C.ar  122  INH122      0.0300
      3  C3         2.7570   -5.5700    4.9170 C.ar  122  INH122      0.0030
      4  C4         1.6860   -5.1100    4.1690 C.ar  122  INH122      0.0120
      5  C5         0.4300   -5.5800    4.4430 C.ar  122  INH122     -0.0220
      6  C6        -0.6090   -5.0640    3.6710 C.ar  122  INH122      0.0120
      7  C7        -1.8970   -5.4750    3.8700 C.ar  122  INH122      0.0020
      8  C8        -2.1780   -6.3900    4.8630 C.ar  122  INH122      0.0240
      9  C9        -1.1580   -6.8950    5.6520 C.ar  122  INH122      0.0690
     10  C10        0.1950   -6.5040    5.4690 C.ar  122  INH122      0.0220
     11  N1         1.1330   -7.9540    7.1960 N.pl3 122  INH122     -0.3550
     12  H7         0.1790   -7.8670    7.5750 H     122  INH122      0.1660
     13  C11        1.7490   -8.9610    7.8130 C.ar  122  INH122      0.0320
     14  C16        2.8270   -9.7300    7.3990 C.ar  122  INH122      0.0290
     15  C15        3.3510  -10.7340    8.2640 C.ar  122  INH122      0.0020
     16  C14        2.8280  -10.9110    9.5370 C.ar  122  INH122      0.0000
     17  C13        1.7660  -10.1320    9.9910 C.ar  122  INH122      0.0020
     18  C12        1.2350   -9.1900    9.1160 C.ar  122  INH122      0.0290
     19  S1        -1.7200   -8.1470    6.8470 S.3   122  INH122      0.1160
     20  O3        -1.4930   -7.6620    8.2550 O.3   122  INH122     -0.3040
     21  H         -1.6470   -6.7060    8.2970 H     122  INH122      0.2300
     22  O2        -1.1090   -9.4760    6.5780 O.3   122  INH122     -0.3040
     23  H         -1.7710  -10.1710    6.7210 H     122  INH122      0.2300
     24  O1        -3.2260   -8.2070    6.7930 O.3   122  INH122     -0.3040
     25  H         -3.5810   -8.2400    7.6940 H     122  INH122      0.2300
@<TRIPOS>BOND
     1     6     7   ar
     2     6     5   ar
     3     7     8   ar
     4     4     5   ar
     5     4     3   ar
     6     5    10   ar
     7     8     9   ar
     8     3     2   ar
     9    10     9   ar
    10    10     1   ar
    11     9    19    1
    12     2     1   ar
    13     1    11    1
    14    22    23    1
    15    22    19    1
    16    24    19    1
    17    24    25    1
    18    19    20    1
    19    11    12    1
    20    11    13    1
    21    14    13   ar
    22    14    15   ar
    23    13    18   ar
    24    20    21    1
    25    15    16   ar
    26    18    17   ar
    27    16    17   ar
