@<TRIPOS>MOLECULE
/tmp/ewbell/vina_1ow4_1ow4_lig/vina/vina5.pdbqt
 25 27 0 0 0
SMALL
GASTEIGER

@<TRIPOS>ATOM
      1  C1         1.5160   -8.3200    6.4790 C.ar  122  INH122      0.0450
      2  C2         2.8100   -8.3370    6.0070 C.ar  122  INH122      0.0300
      3  C3         3.8370   -8.9440    6.7160 C.ar  122  INH122      0.0030
      4  C4         3.5820   -9.5880    7.9160 C.ar  122  INH122      0.0120
      5  C5         2.3040   -9.6040    8.4050 C.ar  122  INH122     -0.0220
      6  C6         2.1060  -10.2860    9.6050 C.ar  122  INH122      0.0120
      7  C7         0.8660  -10.3550   10.1720 C.ar  122  INH122      0.0020
      8  C8        -0.2100   -9.7680    9.5400 C.ar  122  INH122      0.0240
      9  C9        -0.0330   -9.1070    8.3360 C.ar  122  INH122      0.0690
     10  C10        1.2430   -9.0010    7.7200 C.ar  122  INH122      0.0220
     11  N1         0.5150   -7.6500    5.8190 N.pl3 122  INH122     -0.3550
     12  H7        -0.3690   -8.1620    5.9520 H     122  INH122      0.1660
     13  C11        0.2780   -6.5760    5.0690 C.ar  122  INH122      0.0320
     14  C16       -0.9130   -6.1170    4.5250 C.ar  122  INH122      0.0290
     15  C15       -0.9280   -4.8970    3.7880 C.ar  122  INH122      0.0020
     16  C14        0.2260   -4.1380    3.6560 C.ar  122  INH122      0.0000
     17  C13        1.4280   -4.5580    4.2190 C.ar  122  INH122      0.0020
     18  C12        1.4360   -5.7750    4.8940 C.ar  122  INH122      0.0290
     19  S1        -1.5540   -8.3330    7.7040 S.3   122  INH122      0.1160
     20  O3        -1.9200   -8.9200    6.3660 O.3   122  INH122     -0.3040
     21  H         -2.7780   -9.3680    6.4330 H     122  INH122      0.2300
     22  O2        -1.4490   -6.8490    7.6860 O.3   122  INH122     -0.3040
     23  H         -2.2200   -6.4650    8.1320 H     122  INH122      0.2300
     24  O1        -2.7070   -8.7960    8.5580 O.3   122  INH122     -0.3040
     25  H         -3.0930   -8.0370    9.0210 H     122  INH122      0.2300
@<TRIPOS>BOND
     1    16    15   ar
     2    16    17   ar
     3    15    14   ar
     4    17    18   ar
     5    14    13   ar
     6    18    13   ar
     7    13    11    1
     8    11    12    1
     9    11     1    1
    10     2     1   ar
    11     2     3   ar
    12    20    21    1
    13    20    19    1
    14     1    10   ar
    15     3     4   ar
    16    22    19    1
    17    22    23    1
    18    19     9    1
    19    19    24    1
    20    10     9   ar
    21    10     5   ar
    22     4     5   ar
    23     9     8   ar
    24     5     6   ar
    25    24    25    1
    26     8     7   ar
    27     6     7   ar
