@<TRIPOS>MOLECULE
./ligand/2p95_lig.pdb
 50 53 0 0 0
SMALL
GASTEIGER

@<TRIPOS>ATOM
      1  C1         8.5460   44.9450   63.3800 C.2   291  INH291      0.2510
      2  C2         9.2960   43.8860   65.5000 C.ar  291  INH291     -0.0411
      3  C3         9.5640   44.5380   64.2590 C.ar  291  INH291      0.0752
      4  C4         7.1490   42.1470   59.3580 C.ar  291  INH291      0.0368
      5  C5         5.0430   45.6160   63.4870 C.3   291  INH291     -0.0327
      6  C6         4.3840   44.5050   64.2690 C.3   291  INH291     -0.0496
      7  C7         4.9380   43.4190   63.3770 C.3   291  INH291     -0.0327
      8  C8         5.3910   43.9790   62.0470 C.3   291  INH291      0.0418
      9  C9         8.2100   41.1690   57.3330 C.ar  291  INH291     -0.0370
     10  C10        9.8560   38.1880   57.5390 C.ar  291  INH291      0.0132
     11  C11        8.0650   39.8260   57.9090 C.ar  291  INH291      0.0495
     12  C12        6.2320   45.1160   62.6690 C.3   291  INH291      0.0418
     13  C13        7.9520   38.3560   55.9760 C.ar  291  INH291      0.2557
     14  C14        6.9270   40.8070   59.9310 C.ar  291  INH291     -0.0477
     15  C15        8.5610   37.3230   55.0740 C.ar  291  INH291      0.0033
     16  C16        6.5160   43.2810   60.0360 C.2   291  INH291      0.2443
     17  C17        7.7670   42.3340   58.0690 C.ar  291  INH291     -0.0477
     18  N1         8.6440   38.7530   57.1830 N.ar  291  INH291     -0.2842
     19  C18        7.3760   39.6420   59.1940 C.ar  291  INH291     -0.0370
     20  C19       10.4500   37.1960   56.6830 C.ar  291  INH291     -0.0449
     21  C20        9.8230   36.7760   55.4800 C.ar  291  INH291     -0.0552
     22  O1         6.8730   38.8870   55.7130 O.2   291  INH291     -0.2673
     23  N2         6.1040   42.9900   61.2850 N.am  291  INH291     -0.3067
     24  O2         6.3440   44.3830   59.5350 O.2   291  INH291     -0.2702
     25  N3         7.2460   44.5470   63.6360 N.am  291  INH291     -0.3063
     26  O3         8.8650   45.6540   62.4180 O.2   291  INH291     -0.2696
     27  C21       10.5370   43.6020   66.1500 C.ar  291  INH291     -0.0355
     28  S1        11.2170   44.7820   63.9130 S.2   291  INH291     -0.0722
     29  C22       11.6830   44.0440   65.3680 C.ar  291  INH291      0.0787
     30 Cl1        13.4130   43.8570   65.7830 Cl    291  INH291     -0.0758
     31  H1         8.3080   43.6440   65.8880 H     291  INH291      0.0631
     32  H2         5.3950   46.3850   64.1910 H     291  INH291      0.0284
     33  H3         4.3020   46.0560   62.8030 H     291  INH291      0.0284
     34  H4         3.2850   44.5580   64.2580 H     291  INH291      0.0266
     35  H5         4.7370   44.4360   65.3080 H     291  INH291      0.0266
     36  H6         4.1560   42.6660   63.2010 H     291  INH291      0.0284
     37  H7         5.7960   42.9470   63.8780 H     291  INH291      0.0284
     38  H8         4.5630   44.3680   61.4370 H     291  INH291      0.0516
     39  H9         8.6520   41.2890   56.3500 H     291  INH291      0.0638
     40  H10       10.3550   38.4910   58.4580 H     291  INH291      0.0814
     41  H11        6.6740   45.8300   61.9590 H     291  INH291      0.0516
     42  H12        6.4350   40.6940   60.8900 H     291  INH291      0.0626
     43  H13        8.0690   37.0040   54.1560 H     291  INH291      0.0672
     44  H14        7.8980   43.3290   57.6590 H     291  INH291      0.0626
     45  H15        7.2050   38.6460   59.5860 H     291  INH291      0.0638
     46  H16       11.4050   36.7560   56.9650 H     291  INH291      0.0632
     47  H17       10.3080   36.0270   54.8560 H     291  INH291      0.0620
     48  H18        6.2930   42.0910   61.6800 H     291  INH291      0.1494
     49  H19        7.0000   43.9390   64.3910 H     291  INH291      0.1494
     50  H20       10.6160   43.1110   67.1190 H     291  INH291      0.0638
@<TRIPOS>BOND
     1     1    25   am
     2     1    26    2
     3     1     3    1
     4     2     3   ar
     5     2    31    1
     6     2    27   ar
     7     3    28   ar
     8     4    17   ar
     9     4    16    1
    10     4    14   ar
    11     5     6    1
    12     5    33    1
    13     5    32    1
    14     5    12    1
    15     6     7    1
    16     6    35    1
    17     6    34    1
    18     7     8    1
    19     7    37    1
    20     7    36    1
    21     8    23    1
    22     8    38    1
    23     8    12    1
    24     9    11   ar
    25     9    39    1
    26     9    17   ar
    27    10    20   ar
    28    10    40    1
    29    10    18   ar
    30    11    18    1
    31    11    19   ar
    32    12    41    1
    33    12    25    1
    34    13    22    2
    35    13    18   ar
    36    13    15   ar
    37    14    42    1
    38    14    19   ar
    39    15    43    1
    40    15    21   ar
    41    16    24    2
    42    16    23   am
    43    17    44    1
    44    19    45    1
    45    20    21   ar
    46    20    46    1
    47    21    47    1
    48    23    48    1
    49    25    49    1
    50    27    50    1
    51    27    29   ar
    52    28    29   ar
    53    29    30    1
