@<TRIPOS>MOLECULE
/tmp/ewbell/vina_2p95_2p95_lig/vina/vina5.pdbqt
 32 35 0 0 0
SMALL
GASTEIGER

@<TRIPOS>ATOM
      1  C16        7.6250   43.9930   62.0370 C.2   291  INH291      0.2520
      2  N2         8.0110   43.8860   60.7500 N.am  291  INH291     -0.3500
      3  O2         8.4050   43.8330   62.9650 O.2   291  INH291     -0.2680
      4  H18        8.9590   43.6590   60.5270 H     291  INH291      0.1630
      5  C8         7.0520   44.1000   59.7000 C.3   291  INH291      0.1070
      6  C7         7.6350   44.9550   58.5970 C.3   291  INH291      0.0270
      7  C6         6.7180   45.0030   57.3980 C.3   291  INH291      0.0040
      8  C5         5.9510   43.7710   57.8150 C.3   291  INH291      0.0270
      9  C12        6.7490   42.8970   58.7800 C.3   291  INH291      0.1070
     10  N3         8.0070   42.4570   58.0650 N.am  291  INH291     -0.3500
     11  C1         8.1530   41.0830   57.9870 C.2   291  INH291      0.2590
     12  O3         9.1220   40.5300   57.4520 O.2   291  INH291     -0.2670
     13  H19        8.6720   43.0990   57.6830 H     291  INH291      0.1630
     14  C3         7.1620   40.2640   58.5530 C.ar  291  INH291      0.0740
     15  C2         7.2290   39.7880   59.8970 C.ar  291  INH291      0.0270
     16  C21        6.0740   38.9900   60.1630 C.ar  291  INH291      0.0330
     17  C22        5.1840   38.9060   59.0130 C.ar  291  INH291      0.0750
     18  S1         5.7810   39.7700   57.6810 S.2   291  INH291     -0.0720
     19 Cl1         3.6180   38.0480   58.9170 Cl    291  INH291     -0.0760
     20  C4         6.1980   44.2870   62.1880 C.ar  291  INH291      0.0320
     21  C17        5.7780   45.4550   62.9210 C.ar  291  INH291      0.0190
     22  C9         4.3730   45.6200   63.2260 C.ar  291  INH291      0.0310
     23  C11        3.3910   44.6310   62.7630 C.ar  291  INH291      0.0420
     24  C18        3.8370   43.4120   62.0740 C.ar  291  INH291      0.0310
     25  C14        5.2450   43.2430   61.7710 C.ar  291  INH291      0.0190
     26  N1         2.0230   44.9340   62.9880 N.ar  291  INH291     -0.2900
     27  C10        1.3600   45.9240   62.2850 C.ar  291  INH291      0.1000
     28  C19        0.0130   46.2710   62.6560 C.ar  291  INH291      0.0180
     29  C20       -0.6570   45.6200   63.7250 C.ar  291  INH291      0.0070
     30  C15       -0.0160   44.5810   64.4770 C.ar  291  INH291      0.0750
     31  C13        1.3870   44.2270   64.0790 C.ar  291  INH291      0.2520
     32  O1         2.0230   43.3500   64.6640 O.2   291  INH291     -0.2680
@<TRIPOS>BOND
     1     7     8    1
     2     7     6    1
     3    12    11    2
     4    18    14   ar
     5    18    17   ar
     6    13    10    1
     7     8     9    1
     8    11    10   am
     9    11    14    1
    10    10     9    1
    11    14    15   ar
    12     6     5    1
    13     9     5    1
    14    19    17    1
    15    17    16   ar
    16     5     2    1
    17    15    16   ar
    18     4     2    1
    19     2     1   am
    20    25    24   ar
    21    25    20   ar
    22     1    20    1
    23     1     3    2
    24    24    23   ar
    25    20    21   ar
    26    27    28   ar
    27    27    26   ar
    28    28    29   ar
    29    23    26    1
    30    23    22   ar
    31    21    22   ar
    32    26    31   ar
    33    29    30   ar
    34    31    30   ar
    35    31    32    2
