@<TRIPOS>MOLECULE
/tmp/ewbell/vina_2p95_2p95_lig/vina/vina3.pdbqt
 32 35 0 0 0
SMALL
GASTEIGER

@<TRIPOS>ATOM
      1  C16        5.1520   44.9280   58.6860 C.2   291  INH291      0.2520
      2  N2         5.3550   45.3750   59.9400 N.am  291  INH291     -0.3500
      3  O2         4.4820   45.5500   57.8740 O.2   291  INH291     -0.2680
      4  H18        4.9440   46.2370   60.2390 H     291  INH291      0.1630
      5  C8         6.1650   44.6080   60.8470 C.3   291  INH291      0.1070
      6  C7         7.3120   45.4340   61.3850 C.3   291  INH291      0.0270
      7  C6         8.0350   44.7110   62.4970 C.3   291  INH291      0.0040
      8  C5         6.8890   43.7610   62.7530 C.3   291  INH291      0.0270
      9  C12        5.5600   44.3110   62.2370 C.3   291  INH291      0.1070
     10  N3         5.2830   45.6030   62.9730 N.am  291  INH291     -0.3500
     11  C1         3.9910   45.7040   63.4570 C.2   291  INH291      0.2590
     12  O3         3.5690   46.6890   64.0740 O.2   291  INH291     -0.2670
     13  H19        5.9700   46.3190   63.0990 H     291  INH291      0.1630
     14  C3         3.0990   44.6420   63.2320 C.ar  291  INH291      0.0740
     15  C2         2.9100   43.5810   64.1680 C.ar  291  INH291      0.0270
     16  C21        1.9410   42.6700   63.6460 C.ar  291  INH291      0.0330
     17  C22        1.4360   43.0870   62.3450 C.ar  291  INH291      0.0750
     18  S1         2.1550   44.5300   61.8150 S.2   291  INH291     -0.0720
     19 Cl1         0.1930   42.2690   61.3540 Cl    291  INH291     -0.0760
     20  C4         5.7860   43.6330   58.4260 C.ar  291  INH291      0.0320
     21  C17        7.1860   43.5730   58.0900 C.ar  291  INH291      0.0190
     22  C9         7.7440   42.3130   57.6470 C.ar  291  INH291      0.0310
     23  C11        6.9030   41.1110   57.5790 C.ar  291  INH291      0.0420
     24  C18        5.4630   41.1980   57.8620 C.ar  291  INH291      0.0310
     25  C14        4.9020   42.4600   58.3010 C.ar  291  INH291      0.0190
     26  N1         7.5560   39.8910   57.2640 N.ar  291  INH291     -0.2900
     27  C10        8.2300   39.1460   58.2150 C.ar  291  INH291      0.1000
     28  C19        8.9830   37.9910   57.8020 C.ar  291  INH291      0.0180
     29  C20        9.0490   37.5910   56.4420 C.ar  291  INH291      0.0070
     30  C15        8.3590   38.3230   55.4210 C.ar  291  INH291      0.0750
     31  C13        7.5760   39.5240   55.8640 C.ar  291  INH291      0.2520
     32  O1         6.9520   40.2200   55.0630 O.2   291  INH291     -0.2680
@<TRIPOS>BOND
     1    32    31    2
     2    30    31   ar
     3    30    29   ar
     4    31    26   ar
     5    29    28   ar
     6    26    23    1
     7    26    27   ar
     8    23    22   ar
     9    23    24   ar
    10    22    21   ar
    11    28    27   ar
    12    24    25   ar
    13     3     1    2
    14    21    20   ar
    15    25    20   ar
    16    20     1    1
    17     1     2   am
    18     2     4    1
    19     2     5    1
    20     5     6    1
    21     5     9    1
    22    19    17    1
    23     6     7    1
    24    18    17   ar
    25    18    14   ar
    26     9     8    1
    27     9    10    1
    28    17    16   ar
    29     7     8    1
    30    10    13    1
    31    10    11   am
    32    14    11    1
    33    14    15   ar
    34    11    12    2
    35    16    15   ar
