@<TRIPOS>MOLECULE
/tmp/ewbell/vina_2p95_2p95_lig/vina/vina2.pdbqt
 32 35 0 0 0
SMALL
GASTEIGER

@<TRIPOS>ATOM
      1  C16        7.0730   45.5110   57.7690 C.2   291  INH291      0.2520
      2  N2         5.8350   44.9800   57.7810 N.am  291  INH291     -0.3500
      3  O2         7.5570   46.0080   56.7620 O.2   291  INH291     -0.2680
      4  H18        5.2830   44.9730   56.9470 H     291  INH291      0.1630
      5  C8         5.3110   44.4250   59.0000 C.3   291  INH291      0.1070
      6  C7         3.8770   44.8510   59.2200 C.3   291  INH291      0.0270
      7  C6         3.2530   44.1020   60.3740 C.3   291  INH291      0.0040
      8  C5         4.2890   43.0040   60.3460 C.3   291  INH291      0.0270
      9  C12        4.9930   42.9130   58.9940 C.3   291  INH291      0.1070
     10  N3         3.9430   42.6040   57.9510 N.am  291  INH291     -0.3500
     11  C1         4.3290   41.6380   57.0390 C.2   291  INH291      0.2590
     12  O3         3.6130   41.2580   56.1040 O.2   291  INH291     -0.2670
     13  H19        3.0510   43.0560   57.9230 H     291  INH291      0.1630
     14  C3         5.6030   41.0590   57.1650 C.ar  291  INH291      0.0740
     15  C2         6.7980   41.7310   56.7670 C.ar  291  INH291      0.0270
     16  C21        7.9150   40.8790   57.0270 C.ar  291  INH291      0.0330
     17  C22        7.5160   39.6090   57.6170 C.ar  291  INH291      0.0750
     18  S1         5.8340   39.4980   57.8140 S.2   291  INH291     -0.0720
     19 Cl1         8.5850   38.2720   58.1340 Cl    291  INH291     -0.0760
     20  C4         7.7590   45.4020   59.0580 C.ar  291  INH291      0.0320
     21  C17        8.1540   44.1080   59.5550 C.ar  291  INH291      0.0190
     22  C9         8.6500   44.0030   60.9110 C.ar  291  INH291      0.0310
     23  C11        8.7830   45.2010   61.7490 C.ar  291  INH291      0.0420
     24  C18        8.3180   46.5050   61.2550 C.ar  291  INH291      0.0310
     25  C14        7.8160   46.6120   59.8990 C.ar  291  INH291      0.0190
     26  N1         9.4010   45.0300   63.0160 N.ar  291  INH291     -0.2900
     27  C10       10.7430   45.2910   63.2240 C.ar  291  INH291      0.1000
     28  C19       11.3350   44.9690   64.4960 C.ar  291  INH291      0.0180
     29  C20       10.5740   44.3930   65.5480 C.ar  291  INH291      0.0070
     30  C15        9.1770   44.1150   65.3840 C.ar  291  INH291      0.0750
     31  C13        8.5730   44.4570   64.0540 C.ar  291  INH291      0.2520
     32  O1         7.3820   44.2540   63.8150 O.2   291  INH291     -0.2680
@<TRIPOS>BOND
     1    12    11    2
     2     3     1    2
     3    15    16   ar
     4    15    14   ar
     5     4     2    1
     6    16    17   ar
     7    11    14    1
     8    11    10   am
     9    14    18   ar
    10    17    18   ar
    11    17    19    1
    12     1     2   am
    13     1    20    1
    14     2     5    1
    15    13    10    1
    16    10     9    1
    17     9     5    1
    18     9     8    1
    19     5     6    1
    20    20    21   ar
    21    20    25   ar
    22     6     7    1
    23    21    22   ar
    24    25    24   ar
    25     8     7    1
    26    22    23   ar
    27    24    23   ar
    28    23    26    1
    29    26    27   ar
    30    26    31   ar
    31    27    28   ar
    32    32    31    2
    33    31    30   ar
    34    28    29   ar
    35    30    29   ar
