@<TRIPOS>MOLECULE
/tmp/ewbell/vina_2p95_2p95_lig/vina/vina4.pdbqt
 32 35 0 0 0
SMALL
GASTEIGER

@<TRIPOS>ATOM
      1  C16        6.8370   42.9360   60.3340 C.2   291  INH291      0.2520
      2  N2         5.5710   43.3600   60.1470 N.am  291  INH291     -0.3500
      3  O2         7.5880   43.4700   61.1380 O.2   291  INH291     -0.2680
      4  H18        5.2210   44.1400   60.6640 H     291  INH291      0.1630
      5  C8         4.7280   42.6830   59.1990 C.3   291  INH291      0.1070
      6  C7         3.4150   42.2780   59.8310 C.3   291  INH291      0.0270
      7  C6         2.4430   41.7660   58.7940 C.3   291  INH291      0.0040
      8  C5         3.1870   42.4010   57.6440 C.3   291  INH291      0.0270
      9  C12        4.0770   43.5550   58.1020 C.3   291  INH291      0.1070
     10  N3         3.1830   44.6020   58.7290 N.am  291  INH291     -0.3500
     11  C1         3.4730   45.8940   58.3290 C.2   291  INH291      0.2590
     12  O3         2.8620   46.8880   58.7410 O.2   291  INH291     -0.2670
     13  H19        2.4500   44.3800   59.3720 H     291  INH291      0.1630
     14  C3         4.5220   46.1020   57.4170 C.ar  291  INH291      0.0740
     15  C2         5.8610   46.3740   57.8310 C.ar  291  INH291      0.0270
     16  C21        6.6800   46.5310   56.6700 C.ar  291  INH291      0.0330
     17  C22        5.9270   46.3600   55.4360 C.ar  291  INH291      0.0750
     18  S1         4.2870   46.0380   55.7290 S.2   291  INH291     -0.0720
     19 Cl1         6.5580   46.4330   53.7640 Cl    291  INH291     -0.0760
     20  C4         7.2030   41.8130   59.4680 C.ar  291  INH291      0.0320
     21  C17        6.9680   40.4610   59.9070 C.ar  291  INH291      0.0190
     22  C9         7.5130   39.3690   59.1280 C.ar  291  INH291      0.0310
     23  C11        8.2600   39.6390   57.8930 C.ar  291  INH291      0.0420
     24  C18        8.5490   41.0220   57.4900 C.ar  291  INH291      0.0310
     25  C14        8.0080   42.1160   58.2710 C.ar  291  INH291      0.0190
     26  N1         8.6450   38.5130   57.1200 N.ar  291  INH291     -0.2900
     27  C10        9.8420   37.8500   57.3250 C.ar  291  INH291      0.1000
     28  C19       10.2320   36.8010   56.4190 C.ar  291  INH291      0.0180
     29  C20        9.4170   36.4250   55.3190 C.ar  291  INH291      0.0070
     30  C15        8.1620   37.0740   55.0720 C.ar  291  INH291      0.0750
     31  C13        7.7670   38.1640   56.0240 C.ar  291  INH291      0.2520
     32  O1         6.7110   38.7830   55.8950 O.2   291  INH291     -0.2680
@<TRIPOS>BOND
     1    19    17    1
     2    30    29   ar
     3    30    31   ar
     4    29    28   ar
     5    17    18   ar
     6    17    16   ar
     7    18    14   ar
     8    32    31    2
     9    31    26   ar
    10    28    27   ar
    11    16    15   ar
    12    26    27   ar
    13    26    23    1
    14    14    15   ar
    15    14    11    1
    16    24    23   ar
    17    24    25   ar
    18     8     9    1
    19     8     7    1
    20    23    22   ar
    21     9    10    1
    22     9     5    1
    23    25    20   ar
    24    11    10   am
    25    11    12    2
    26    10    13    1
    27     7     6    1
    28    22    21   ar
    29     5     6    1
    30     5     2    1
    31    20    21   ar
    32    20     1    1
    33     2     1   am
    34     2     4    1
    35     1     3    2
