@<TRIPOS>MOLECULE
/tmp/ewbell/vina_2p95_2p95_lig/vina/vina1.pdbqt
 32 35 0 0 0
SMALL
GASTEIGER

@<TRIPOS>ATOM
      1  C16        4.9400   43.2170   59.4680 C.2   291  INH291      0.2520
      2  N2         5.7860   44.1560   59.9330 N.am  291  INH291     -0.3500
      3  O2         3.7280   43.3060   59.6090 O.2   291  INH291     -0.2680
      4  H18        5.4320   44.9550   60.4200 H     291  INH291      0.1630
      5  C8         7.2000   44.0050   59.7240 C.3   291  INH291      0.1070
      6  C7         7.6780   44.8770   58.5840 C.3   291  INH291      0.0270
      7  C6         9.1870   44.8910   58.5000 C.3   291  INH291      0.0040
      8  C5         9.3660   44.3930   59.9140 C.3   291  INH291      0.0270
      9  C12        8.1310   44.6510   60.7750 C.3   291  INH291      0.1070
     10  N3         7.9090   46.1460   60.8210 N.am  291  INH291     -0.3500
     11  C1         8.4180   46.7510   61.9550 C.2   291  INH291      0.2590
     12  O3         8.3260   47.9640   62.1820 O.2   291  INH291     -0.2670
     13  H19        7.4380   46.6510   60.0970 H     291  INH291      0.1630
     14  C3         9.0670   45.9550   62.9140 C.ar  291  INH291      0.0740
     15  C2        10.4890   45.8700   63.0120 C.ar  291  INH291      0.0270
     16  C21       10.8260   44.9870   64.0830 C.ar  291  INH291      0.0330
     17  C22        9.6480   44.4520   64.7500 C.ar  291  INH291      0.0750
     18  S1         8.2080   45.0210   64.0550 S.2   291  INH291     -0.0720
     19 Cl1         9.6070   43.3470   66.1550 Cl    291  INH291     -0.0760
     20  C4         5.6230   42.0950   58.8200 C.ar  291  INH291      0.0320
     21  C17        6.0160   40.9470   59.5960 C.ar  291  INH291      0.0190
     22  C9         6.8600   39.9440   58.9810 C.ar  291  INH291      0.0310
     23  C11        7.2740   40.0800   57.5790 C.ar  291  INH291      0.0420
     24  C18        6.9210   41.2850   56.8170 C.ar  291  INH291      0.0310
     25  C14        6.0810   42.2930   57.4320 C.ar  291  INH291      0.0190
     26  N1         7.9870   38.9900   57.0140 N.ar  291  INH291     -0.2900
     27  C10        9.3060   38.7240   57.3360 C.ar  291  INH291      0.1000
     28  C19       10.0100   37.6880   56.6270 C.ar  291  INH291      0.0180
     29  C20        9.3840   36.9250   55.6060 C.ar  291  INH291      0.0070
     30  C15        8.0150   37.1550   55.2450 C.ar  291  INH291      0.0750
     31  C13        7.2930   38.2370   55.9930 C.ar  291  INH291      0.2520
     32  O1         6.1170   38.5130   55.7540 O.2   291  INH291     -0.2680
@<TRIPOS>BOND
     1    30    29   ar
     2    30    31   ar
     3    29    28   ar
     4    32    31    2
     5    31    26   ar
     6    28    27   ar
     7    24    25   ar
     8    24    23   ar
     9    26    27   ar
    10    26    23    1
    11    25    20   ar
    12    23    22   ar
    13     7     6    1
    14     7     8    1
    15     6     5    1
    16    20     1    1
    17    20    21   ar
    18    22    21   ar
    19     1     3    2
    20     1     2   am
    21     5     2    1
    22     5     9    1
    23     8     9    1
    24     2     4    1
    25    13    10    1
    26     9    10    1
    27    10    11   am
    28    11    12    2
    29    11    14    1
    30    14    15   ar
    31    14    18   ar
    32    15    16   ar
    33    18    17   ar
    34    16    17   ar
    35    17    19    1
