@<TRIPOS>MOLECULE
/tmp/ewbell/vina_3eqr_3eqr_lig/vina/vina4.pdbqt
 45 49 0 0 0
SMALL
GASTEIGER

@<TRIPOS>ATOM
      1  N1        24.1850    8.2190   21.8190 N.pl3 550  INH550     -0.2740
      2  C7        22.8790    7.9840   21.9240 C.2   550  INH550      0.1490
      3  C8        22.2220    9.0400   21.3040 C.2   550  INH550      0.0510
      4  C9        23.2330    9.8720   20.8350 C.3   550  INH550      0.1320
      5  N3        24.4600    9.4090   21.1210 N.3   550  INH550     -0.2810
      6  H3        25.3660    9.8190   20.8910 H     550  INH550      0.1890
      7  C18       20.8300    9.0710   21.2590 C.3   550  INH550      0.1840
      8  N4        20.1710    8.0430   21.8500 N.3   550  INH550     -0.2210
      9  H4        19.1510    8.0400   21.8310 H     550  INH550      0.1780
     10  N5        22.1780    6.9840   22.5070 N.pl3 550  INH550     -0.1750
     11  C19       20.8230    7.0050   22.4750 C.3   550  INH550      0.6800
     12  N6        20.1080    5.9880   23.0400 N.pl3 550  INH550     -0.1920
     13  H25       19.1210    5.9180   22.7540 H     550  INH550      0.1840
     14  H         22.6500    6.2450   22.9540 H     550  INH550      0.1860
     15  C20       20.5350    5.0540   23.9360 C.ar  550  INH550      0.0490
     16  C25       20.2310    5.1100   25.3020 C.ar  550  INH550      0.0320
     17  C24       20.7260    4.1300   26.1670 C.ar  550  INH550      0.0310
     18  C23       21.5340    3.0760   25.6960 C.ar  550  INH550      0.0300
     19  C22       21.8360    3.0310   24.3390 C.ar  550  INH550      0.0310
     20  C21       21.3460    4.0080   23.4710 C.ar  550  INH550      0.0320
     21  N7        22.0030    2.0650   26.5860 N.pl3 550  INH550     -0.3780
     22  C29       23.1310    1.2640   26.0870 C.3   550  INH550      0.1500
     23  C28       23.2770   -0.0210   26.9040 C.3   550  INH550      0.2520
     24  N8        23.2230    0.2720   28.3250 N.4   550  INH550     -0.0720
     25  C27       22.1050    1.0560   28.8090 C.3   550  INH550      0.2520
     26  H39       24.0660    0.7710   28.5620 H     550  INH550      0.2770
     27  H34       23.2050   -0.6730   28.8480 H     550  INH550      0.2770
     28  C26       21.9570    2.3610   28.0240 C.3   550  INH550      0.1500
     29  C6        25.3550    7.4470   22.2480 C.3   550  INH550      0.1540
     30  C5        25.2180    7.3790   23.7700 C.3   550  INH550      0.0590
     31  C2        25.1060    5.9880   24.3990 C.3   550  INH550      0.0540
     32  C4        23.9430    5.9460   25.3870 C.3   550  INH550      0.0450
     33  C3        24.8360    4.9450   23.3340 C.3   550  INH550      0.0450
     34  O1        26.3420    5.6550   25.0690 O.3   550  INH550     -0.3860
     35  C1        27.5520    5.3580   24.3550 C.3   550  INH550      0.2020
     36  N2        23.0340   11.0340   20.1840 N.pl3 550  INH550     -0.3400
     37  H14       23.6310   11.8370   20.4320 H     550  INH550      0.1670
     38  C10       22.0800   11.2140   19.2050 C.ar  550  INH550      0.0450
     39  C16       22.2110   10.6730   17.9070 C.ar  550  INH550     -0.0350
     40  C15       21.2340   10.9130   16.9270 C.ar  550  INH550      0.0090
     41  C17       23.3600    9.7920   17.4870 C.3   550  INH550      0.0500
     42  C14       20.1230   11.7000   17.2200 C.ar  550  INH550      0.0010
     43  C13       19.9900   12.2430   18.4960 C.ar  550  INH550      0.0090
     44  C11       20.9620   12.0090   19.4720 C.ar  550  INH550     -0.0350
     45  C12       20.7460   12.6580   20.8250 C.3   550  INH550      0.0500
@<TRIPOS>BOND
     1    40    42   ar
     2    40    39   ar
     3    42    43   ar
     4    41    39    1
     5    39    38   ar
     6    43    44   ar
     7    38    44   ar
     8    38    36    1
     9    44    45    1
    10    36    37    1
    11    36     4    1
    12     4     5    1
    13     4     3    1
    14     6     5    1
    15     5     1    1
    16     7     3    1
    17     7     8    1
    18     3     2    2
    19     1     2    1
    20     1    29    1
    21     9     8    1
    22     8    11    1
    23     2    10    1
    24    29    30    1
    25    11    10    1
    26    11    12    1
    27    10    14    1
    28    13    12    1
    29    12    15    1
    30    33    31    1
    31    20    15   ar
    32    20    19   ar
    33    30    31    1
    34    15    16   ar
    35    19    18   ar
    36    35    34    1
    37    31    34    1
    38    31    32    1
    39    16    17   ar
    40    18    17   ar
    41    18    21    1
    42    22    21    1
    43    22    23    1
    44    21    28    1
    45    23    24    1
    46    28    25    1
    47    24    26    1
    48    24    25    1
    49    24    27    1
