@<TRIPOS>MOLECULE
/tmp/ewbell/vina_3eqr_3eqr_lig/vina/vina2.pdbqt
 45 49 0 0 0
SMALL
GASTEIGER

@<TRIPOS>ATOM
      1  N1        23.6460    8.1640   21.6950 N.pl3 550  INH550     -0.2740
      2  C7        24.8320    8.6600   22.0420 C.2   550  INH550      0.1490
      3  C8        24.9080    9.9460   21.5180 C.2   550  INH550      0.0510
      4  C9        23.6940   10.1460   20.8700 C.3   550  INH550      0.1320
      5  N3        22.8790    9.0820   20.9540 N.3   550  INH550     -0.2810
      6  H3        21.9390    8.9670   20.5750 H     550  INH550      0.1890
      7  C18       26.0490   10.7180   21.7190 C.3   550  INH550      0.1840
      8  N4        27.0600   10.1550   22.4260 N.3   550  INH550     -0.2210
      9  H4        27.9070   10.6990   22.5880 H     550  INH550      0.1780
     10  N5        25.8700    8.1370   22.7360 N.pl3 550  INH550     -0.1750
     11  C19       26.9880    8.8780   22.9330 C.3   550  INH550      0.6800
     12  N6        28.0310    8.3660   23.6530 N.pl3 550  INH550     -0.1920
     13  H25       28.7200    9.0510   23.9950 H     550  INH550      0.1840
     14  H         25.8130    7.2230   23.0950 H     550  INH550      0.1860
     15  C20       28.2740    7.0650   23.9740 C.ar  550  INH550      0.0490
     16  C25       27.2550    6.1330   24.2100 C.ar  550  INH550      0.0320
     17  C24       27.5800    4.8190   24.5600 C.ar  550  INH550      0.0310
     18  C23       28.9200    4.4030   24.6860 C.ar  550  INH550      0.0300
     19  C22       29.9260    5.3360   24.4550 C.ar  550  INH550      0.0310
     20  C21       29.6070    6.6490   24.1060 C.ar  550  INH550      0.0320
     21  N7        29.2350    3.0500   25.0110 N.pl3 550  INH550     -0.3780
     22  C29       28.5160    2.5000   26.1690 C.3   550  INH550      0.1500
     23  C28       29.2090    1.2340   26.6760 C.3   550  INH550      0.2520
     24  N8        29.5100    0.3420   25.5710 N.4   550  INH550     -0.0720
     25  C27       30.2240    0.8910   24.4370 C.3   550  INH550      0.2520
     26  H39       28.6330   -0.0190   25.2290 H     550  INH550      0.2770
     27  H34       30.1040   -0.4700   25.9650 H     550  INH550      0.2770
     28  C26       29.5320    2.1430   23.8940 C.3   550  INH550      0.1500
     29  C6        22.9990    6.8820   21.9880 C.3   550  INH550      0.1540
     30  C5        22.0860    7.1890   23.1760 C.3   550  INH550      0.0590
     31  C2        22.1580    6.2400   24.3740 C.3   550  INH550      0.0540
     32  C4        23.5970    5.7860   24.6050 C.3   550  INH550      0.0450
     33  C3        21.6930    6.9410   25.6340 C.3   550  INH550      0.0450
     34  O1        21.3060    5.0970   24.1420 O.3   550  INH550     -0.3860
     35  C1        21.8260    3.7710   23.9500 C.3   550  INH550      0.2020
     36  N2        23.3530   11.2640   20.2010 N.pl3 550  INH550     -0.3400
     37  H14       23.9800   12.0790   20.2680 H     550  INH550      0.1670
     38  C10       22.2150   11.3820   19.4310 C.ar  550  INH550      0.0450
     39  C16       21.0280   11.9770   19.9150 C.ar  550  INH550     -0.0350
     40  C15       19.8790   12.0420   19.1120 C.ar  550  INH550      0.0090
     41  C17       20.9120   12.6030   21.2820 C.3   550  INH550      0.0500
     42  C14       19.8890   11.5080   17.8260 C.ar  550  INH550      0.0010
     43  C13       21.0530   10.9140   17.3430 C.ar  550  INH550      0.0090
     44  C11       22.1970   10.8440   18.1420 C.ar  550  INH550     -0.0350
     45  C12       23.4110   10.1600   17.5430 C.3   550  INH550      0.0500
@<TRIPOS>BOND
     1    43    42   ar
     2    43    44   ar
     3    45    44    1
     4    42    40   ar
     5    44    38   ar
     6    40    39   ar
     7    38    39   ar
     8    38    36    1
     9    39    41    1
    10    36    37    1
    11    36     4    1
    12     6     5    1
    13     4     5    1
    14     4     3    1
    15     5     1    1
    16     3     7    1
    17     3     2    2
    18     1    29    1
    19     1     2    1
    20     7     8    1
    21    29    30    1
    22     2    10    1
    23     8     9    1
    24     8    11    1
    25    10    11    1
    26    10    14    1
    27    11    12    1
    28    30    31    1
    29    12    15    1
    30    12    13    1
    31    28    25    1
    32    28    21    1
    33    35    34    1
    34    15    20   ar
    35    15    16   ar
    36    20    19   ar
    37    34    31    1
    38    16    17   ar
    39    31    32    1
    40    31    33    1
    41    25    24    1
    42    19    18   ar
    43    17    18   ar
    44    18    21    1
    45    21    22    1
    46    26    24    1
    47    24    27    1
    48    24    23    1
    49    22    23    1
