@<TRIPOS>MOLECULE
/tmp/ewbell/vina_3eqr_3eqr_lig/vina/vina5.pdbqt
 45 49 0 0 0
SMALL
GASTEIGER

@<TRIPOS>ATOM
      1  N1        23.4180    7.6140   21.9730 N.pl3 550  INH550     -0.2740
      2  C7        22.0880    7.6700   21.9900 C.2   550  INH550      0.1490
      3  C8        21.7180    8.8310   21.3210 C.2   550  INH550      0.0510
      4  C9        22.9140    9.4140   20.9180 C.3   550  INH550      0.1320
      5  N3        23.9900    8.7020   21.2900 N.3   550  INH550     -0.2810
      6  H3        24.9760    8.9010   21.1200 H     550  INH550      0.1890
      7  C18       20.3720    9.1610   21.1810 C.3   550  INH550      0.1840
      8  N4        19.4680    8.3130   21.7300 N.3   550  INH550     -0.2210
      9  H4        18.4760    8.5300   21.6420 H     550  INH550      0.1780
     10  N5        21.1490    6.8570   22.5290 N.pl3 550  INH550     -0.1750
     11  C19       19.8370    7.1700   22.4030 C.3   550  INH550      0.6800
     12  N6        18.8820    6.3440   22.9240 N.pl3 550  INH550     -0.1920
     13  H25       17.9240    6.4830   22.5720 H     550  INH550      0.1840
     14  H         21.4190    6.0420   23.0100 H     550  INH550      0.1860
     15  C20       19.0360    5.3580   23.8520 C.ar  550  INH550      0.0490
     16  C25       20.2530    4.6980   24.0690 C.ar  550  INH550      0.0320
     17  C24       20.3310    3.6770   25.0210 C.ar  550  INH550      0.0310
     18  C23       19.2060    3.2880   25.7740 C.ar  550  INH550      0.0300
     19  C22       18.0000    3.9440   25.5480 C.ar  550  INH550      0.0310
     20  C21       17.9160    4.9630   24.5980 C.ar  550  INH550      0.0320
     21  N7        19.3110    2.2680   26.7660 N.pl3 550  INH550     -0.3780
     22  C29       20.1990    2.5800   27.8960 C.3   550  INH550      0.1500
     23  C28       20.5610    1.3050   28.6580 C.3   550  INH550      0.2520
     24  N8        19.3730    0.5140   28.9220 N.4   550  INH550     -0.0720
     25  C27       18.5070    0.2060   27.8020 C.3   550  INH550      0.2520
     26  H39       18.8210    1.0170   29.5990 H     550  INH550      0.2770
     27  H34       19.6980   -0.4240   29.3460 H     550  INH550      0.2770
     28  C26       18.1070    1.4720   27.0400 C.3   550  INH550      0.1500
     29  C6        24.3610    6.6160   22.4850 C.3   550  INH550      0.1540
     30  C5        24.2940    6.7850   24.0040 C.3   550  INH550      0.0590
     31  C2        24.1670    5.5130   24.8440 C.3   550  INH550      0.0540
     32  C4        23.7830    4.3310   23.9580 C.3   550  INH550      0.0450
     33  C3        25.4890    5.1770   25.5020 C.3   550  INH550      0.0450
     34  O1        23.1730    5.7060   25.8750 O.3   550  INH550     -0.3860
     35  C1        22.2940    6.8420   25.8970 C.3   550  INH550      0.2020
     36  N2        23.0160   10.5790   20.2490 N.pl3 550  INH550     -0.3400
     37  H14       23.8230   11.1860   20.4540 H     550  INH550      0.1670
     38  C10       22.1050   11.0060   19.3050 C.ar  550  INH550      0.0450
     39  C16       21.0540   11.8970   19.6130 C.ar  550  INH550     -0.0350
     40  C15       20.1240   12.2750   18.6320 C.ar  550  INH550      0.0090
     41  C17       20.8690   12.5240   20.9710 C.3   550  INH550      0.0500
     42  C14       20.2190   11.7660   17.3390 C.ar  550  INH550      0.0010
     43  C13       21.2490   10.8810   17.0290 C.ar  550  INH550      0.0090
     44  C11       22.1740   10.4990   18.0050 C.ar  550  INH550     -0.0350
     45  C12       23.2470    9.5150   17.5840 C.3   550  INH550      0.0500
@<TRIPOS>BOND
     1    43    42   ar
     2    43    44   ar
     3    42    40   ar
     4    45    44    1
     5    44    38   ar
     6    40    39   ar
     7    38    39   ar
     8    38    36    1
     9    39    41    1
    10    36    37    1
    11    36     4    1
    12     4     5    1
    13     4     3    1
    14     6     5    1
    15     7     3    1
    16     7     8    1
    17     5     1    1
    18     3     2    2
    19     9     8    1
    20     8    11    1
    21     1     2    1
    22     1    29    1
    23     2    10    1
    24    11    10    1
    25    11    12    1
    26    29    30    1
    27    10    14    1
    28    13    12    1
    29    12    15    1
    30    15    16   ar
    31    15    20   ar
    32    32    31    1
    33    30    31    1
    34    16    17   ar
    35    20    19   ar
    36    31    33    1
    37    31    34    1
    38    17    18   ar
    39    19    18   ar
    40    18    21    1
    41    34    35    1
    42    21    28    1
    43    21    22    1
    44    28    25    1
    45    25    24    1
    46    22    23    1
    47    23    24    1
    48    24    27    1
    49    24    26    1
