@<TRIPOS>MOLECULE
/tmp/ewbell/vina_3eqr_3eqr_lig/vina/vina1.pdbqt
 45 49 0 0 0
SMALL
GASTEIGER

@<TRIPOS>ATOM
      1  N1        23.5960    8.1440   21.7010 N.pl3 550  INH550     -0.2740
      2  C7        24.7750    8.6530   22.0490 C.2   550  INH550      0.1490
      3  C8        24.8330    9.9430   21.5320 C.2   550  INH550      0.0510
      4  C9        23.6150   10.1310   20.8890 C.3   550  INH550      0.1320
      5  N3        22.8150    9.0550   20.9670 N.3   550  INH550     -0.2810
      6  H3        21.8750    8.9300   20.5890 H     550  INH550      0.1890
      7  C18       25.9640   10.7290   21.7360 C.3   550  INH550      0.1840
      8  N4        26.9830   10.1750   22.4380 N.3   550  INH550     -0.2210
      9  H4        27.8230   10.7300   22.6020 H     550  INH550      0.1780
     10  N5        25.8210    8.1400   22.7370 N.pl3 550  INH550     -0.1750
     11  C19       26.9300    8.8940   22.9370 C.3   550  INH550      0.6800
     12  N6        27.9810    8.3920   23.6510 N.pl3 550  INH550     -0.1920
     13  H25       28.6620    9.0830   23.9970 H     550  INH550      0.1840
     14  H         25.7780    7.2220   23.0910 H     550  INH550      0.1860
     15  C20       28.2430    7.0920   23.9630 C.ar  550  INH550      0.0490
     16  C25       27.2370    6.1490   24.2110 C.ar  550  INH550      0.0320
     17  C24       27.5800    4.8370   24.5500 C.ar  550  INH550      0.0310
     18  C23       28.9270    4.4340   24.6550 C.ar  550  INH550      0.0300
     19  C22       29.9190    5.3790   24.4120 C.ar  550  INH550      0.0310
     20  C21       29.5820    6.6890   24.0740 C.ar  550  INH550      0.0320
     21  N7        29.2600    3.0830   24.9690 N.pl3 550  INH550     -0.3780
     22  C29       29.5930    2.2350   23.8150 C.3   550  INH550      0.1500
     23  C28       29.5240    0.7570   24.2020 C.3   550  INH550      0.2520
     24  N8        30.2300    0.5230   25.4480 N.4   550  INH550     -0.0720
     25  C27       29.8910    1.3590   26.5820 C.3   550  INH550      0.2520
     26  H39       31.2130    0.6490   25.2650 H     550  INH550      0.2770
     27  H34       30.0450   -0.5010   25.7370 H     550  INH550      0.2770
     28  C26       29.9820    2.8460   26.2260 C.3   550  INH550      0.1500
     29  C6        22.9660    6.8510   21.9860 C.3   550  INH550      0.1540
     30  C5        22.0050    7.1520   23.1370 C.3   550  INH550      0.0590
     31  C2        22.1260    6.2860   24.3930 C.3   550  INH550      0.0540
     32  C4        23.5740    5.8480   24.5960 C.3   550  INH550      0.0450
     33  C3        21.7120    7.0710   25.6210 C.3   550  INH550      0.0450
     34  O1        21.2680    5.1310   24.2740 O.3   550  INH550     -0.3860
     35  C1        21.7640    3.8330   23.9090 C.3   550  INH550      0.2020
     36  N2        23.2570   11.2480   20.2270 N.pl3 550  INH550     -0.3400
     37  H14       23.8250   12.0970   20.3680 H     550  INH550      0.1670
     38  C10       22.1770   11.3240   19.3730 C.ar  550  INH550      0.0450
     39  C16       22.2100   10.8120   18.0580 C.ar  550  INH550     -0.0350
     40  C15       21.1010   10.9460   17.2080 C.ar  550  INH550      0.0090
     41  C17       23.3920   10.0710   17.4860 C.3   550  INH550      0.0500
     42  C14       19.9520   11.5990   17.6470 C.ar  550  INH550      0.0010
     43  C13       19.9140   12.1130   18.9420 C.ar  550  INH550      0.0090
     44  C11       21.0180   11.9850   19.7890 C.ar  550  INH550     -0.0350
     45  C12       20.8950   12.5940   21.1720 C.3   550  INH550      0.0500
@<TRIPOS>BOND
     1    40    42   ar
     2    40    39   ar
     3    41    39    1
     4    42    43   ar
     5    39    38   ar
     6    43    44   ar
     7    38    44   ar
     8    38    36    1
     9    44    45    1
    10    36    37    1
    11    36     4    1
    12     6     5    1
    13     4     5    1
    14     4     3    1
    15     5     1    1
    16     3     7    1
    17     3     2    2
    18     1    29    1
    19     1     2    1
    20     7     8    1
    21    29    30    1
    22     2    10    1
    23     8     9    1
    24     8    11    1
    25    10    11    1
    26    10    14    1
    27    11    12    1
    28    30    31    1
    29    12    15    1
    30    12    13    1
    31    22    23    1
    32    22    21    1
    33    35    34    1
    34    15    20   ar
    35    15    16   ar
    36    20    19   ar
    37    23    24    1
    38    16    17   ar
    39    34    31    1
    40    31    32    1
    41    31    33    1
    42    19    18   ar
    43    17    18   ar
    44    18    21    1
    45    21    28    1
    46    26    24    1
    47    24    27    1
    48    24    25    1
    49    28    25    1
