@<TRIPOS>MOLECULE
/tmp/ewbell/vina_3eqr_3eqr_lig/vina/vina3.pdbqt
 45 49 0 0 0
SMALL
GASTEIGER

@<TRIPOS>ATOM
      1  N1        24.2820    8.0550   21.6750 N.pl3 550  INH550     -0.2740
      2  C7        22.9740    7.8820   21.8450 C.2   550  INH550      0.1490
      3  C8        22.3380    8.9850   21.2870 C.2   550  INH550      0.0510
      4  C9        23.3630    9.7780   20.7820 C.3   550  INH550      0.1320
      5  N3        24.5790    9.2480   20.9910 N.3   550  INH550     -0.2810
      6  H3        25.4910    9.6180   20.7200 H     550  INH550      0.1890
      7  C18       20.9490    9.0840   21.3190 C.3   550  INH550      0.1840
      8  N4        20.2720    8.0760   21.9210 N.3   550  INH550     -0.2210
      9  H4        19.2540    8.1240   21.9580 H     550  INH550      0.1780
     10  N5        22.2550    6.9030   22.4430 N.pl3 550  INH550     -0.1750
     11  C19       20.9040    6.9910   22.4850 C.3   550  INH550      0.6800
     12  N6        20.1690    5.9960   23.0650 N.pl3 550  INH550     -0.1920
     13  H25       19.1660    5.9820   22.8320 H     550  INH550      0.1840
     14  H         22.7130    6.1300   22.8460 H     550  INH550      0.1860
     15  C20       20.5960    5.0200   23.9140 C.ar  550  INH550      0.0490
     16  C25       21.4960    4.0160   23.5330 C.ar  550  INH550      0.0320
     17  C24       21.8710    3.0310   24.4510 C.ar  550  INH550      0.0310
     18  C23       21.3610    3.0190   25.7640 C.ar  550  INH550      0.0300
     19  C22       20.4640    4.0170   26.1330 C.ar  550  INH550      0.0310
     20  C21       20.0850    5.0020   25.2200 C.ar  550  INH550      0.0320
     21  N7        21.7790    2.0270   26.6990 N.pl3 550  INH550     -0.3780
     22  C29       22.9490    1.2350   26.2910 C.3   550  INH550      0.1500
     23  C28       23.0540   -0.0360   27.1360 C.3   550  INH550      0.2520
     24  N8        22.8980    0.2750   28.5450 N.4   550  INH550     -0.0720
     25  C27       21.7400    1.0510   28.9390 C.3   550  INH550      0.2520
     26  H39       23.7160    0.7890   28.8320 H     550  INH550      0.2770
     27  H34       22.8560   -0.6620   29.0790 H     550  INH550      0.2770
     28  C26       21.6300    2.3430   28.1260 C.3   550  INH550      0.1500
     29  C6        25.4340    7.2170   22.0210 C.3   550  INH550      0.1540
     30  C5        26.5100    8.2180   22.4430 C.3   550  INH550      0.0590
     31  C2        27.4320    7.8090   23.5930 C.3   550  INH550      0.0540
     32  C4        27.4410    8.8870   24.6730 C.3   550  INH550      0.0450
     33  C3        26.9440    6.5260   24.2330 C.3   550  INH550      0.0450
     34  O1        28.7700    7.5950   23.0920 O.3   550  INH550     -0.3860
     35  C1        29.7980    6.9680   23.8760 C.3   550  INH550      0.2020
     36  N2        23.1890   10.9650   20.1700 N.pl3 550  INH550     -0.3400
     37  H14       23.8670   11.7150   20.3660 H     550  INH550      0.1670
     38  C10       22.1560   11.2350   19.2970 C.ar  550  INH550      0.0450
     39  C16       21.0230   11.9900   19.6700 C.ar  550  INH550     -0.0350
     40  C15       19.9750   12.2090   18.7630 C.ar  550  INH550      0.0090
     41  C17       20.8650   12.6340   21.0250 C.3   550  INH550      0.0500
     42  C14       20.0330   11.6720   17.4790 C.ar  550  INH550      0.0010
     43  C13       21.1450   10.9200   17.1050 C.ar  550  INH550      0.0090
     44  C11       22.1870   10.6970   18.0070 C.ar  550  INH550     -0.0350
     45  C12       23.3450    9.8480   17.5220 C.3   550  INH550      0.0500
@<TRIPOS>BOND
     1    43    42   ar
     2    43    44   ar
     3    42    40   ar
     4    45    44    1
     5    44    38   ar
     6    40    39   ar
     7    38    39   ar
     8    38    36    1
     9    39    41    1
    10    36    37    1
    11    36     4    1
    12     6     5    1
    13     4     5    1
    14     4     3    1
    15     5     1    1
    16     3     7    1
    17     3     2    2
    18     7     8    1
    19     1     2    1
    20     1    29    1
    21     2    10    1
    22     8     9    1
    23     8    11    1
    24    29    30    1
    25    10    11    1
    26    10    14    1
    27    30    31    1
    28    11    12    1
    29    13    12    1
    30    12    15    1
    31    34    31    1
    32    34    35    1
    33    16    15   ar
    34    16    17   ar
    35    31    33    1
    36    31    32    1
    37    15    20   ar
    38    17    18   ar
    39    20    19   ar
    40    18    19   ar
    41    18    21    1
    42    22    21    1
    43    22    23    1
    44    21    28    1
    45    23    24    1
    46    28    25    1
    47    24    26    1
    48    24    25    1
    49    24    27    1
