@<TRIPOS>MOLECULE
./ligand/2gz2_lig.pdb
 38 40 0 0 0
SMALL
GASTEIGER

@<TRIPOS>ATOM
      1  C1        40.7120   41.1670   23.4900 C.ar  719  INH719      0.1205
      2  C2        38.9140   39.5310   27.1840 C.ar  719  INH719      0.1004
      3  C3        40.2030   40.9150   26.1360 C.ar  719  INH719      0.1473
      4  C4        39.5930   40.0850   25.2060 C.ar  719  INH719      0.1674
      5  C5        41.0840   41.8930   25.6670 C.ar  719  INH719      0.1472
      6  C6        37.1320   36.0600   25.5830 C.3   719  INH719      0.1144
      7  C7        38.3670   36.8970   25.9270 C.3   719  INH719      0.1434
      8  C8        36.0130   37.0940   25.6780 C.3   719  INH719      0.1134
      9  C9        38.0010   38.2140   25.2670 C.3   719  INH719      0.1675
     10  C10       35.4890   36.9180   27.0790 C.3   719  INH719      0.0880
     11  N1        39.8660   40.2290   23.8950 N.ar  719  INH719     -0.2159
     12  N2        41.3180   41.9860   24.3480 N.ar  719  INH719     -0.2188
     13  N3        39.7640   40.5450   27.3420 N.ar  719  INH719     -0.2306
     14  N4        38.8250   39.2460   25.8860 N.ar  719  INH719     -0.2855
     15  N5        41.7070   42.7100   26.5130 N.pl3 719  INH719     -0.3413
     16  O1        40.0160   33.9090   25.9850 O.3   719  INH719     -0.1145
     17  O2        40.5240   35.7660   27.6380 O.3   719  INH719     -0.1145
     18  O3        33.3640   36.5370   29.2300 O.3   719  INH719     -0.1145
     19  O4        35.0060   34.5580   29.0600 O.3   719  INH719     -0.1145
     20  O5        41.9720   35.4710   25.5440 O.2   719  INH719     -0.2224
     21  O6        32.6710   34.4020   27.8950 O.2   719  INH719     -0.2224
     22  O7        36.6060   38.4200   25.6110 O.3   719  INH719     -0.3456
     23  O8        37.2060   35.5490   24.2510 O.3   719  INH719     -0.3864
     24  O9        39.5470   36.3770   25.3180 O.3   719  INH719     -0.2731
     25  O10       34.4320   36.0140   26.9930 O.3   719  INH719     -0.2809
     26  P1        40.5060   35.4320   26.2010 P.3   719  INH719      0.5324
     27  P2        33.7830   35.3060   28.2910 P.3   719  INH719      0.5320
     28  H1        40.9150   41.2700   22.4340 H     719  INH719      0.1048
     29  H2        38.3850   39.0240   27.9770 H     719  INH719      0.1030
     30  H3        37.0050   35.1840   26.2360 H     719  INH719      0.0648
     31  H4        38.5850   36.9400   27.0040 H     719  INH719      0.0674
     32  H5        35.2530   36.9810   24.8900 H     719  INH719      0.0647
     33  H6        38.1550   38.2320   24.1780 H     719  INH719      0.0867
     34  H7        36.2770   36.5270   27.7390 H     719  INH719      0.0592
     35  H8        35.1580   37.8770   27.5030 H     719  INH719      0.0592
     36  H9        41.5520   42.6050   27.5060 H     719  INH719      0.1438
     37  H10       42.3330   43.4170   26.1570 H     719  INH719      0.1438
     38  H11       37.9900   35.8840   23.7130 H     719  INH719      0.2100
@<TRIPOS>BOND
     1    28     1    1
     2     1    11   ar
     3     1    12   ar
     4    38    23    1
     5    11     4   ar
     6    33     9    1
     7    23     6    1
     8    12     5   ar
     9    32     8    1
    10     4    14   ar
    11     4     3   ar
    12     9    22    1
    13     9    14    1
    14     9     7    1
    15    24     7    1
    16    24    26    1
    17    20    26    2
    18     6     8    1
    19     6     7    1
    20     6    30    1
    21    22     8    1
    22     5     3   ar
    23     5    15    1
    24     8    10    1
    25    14     2   ar
    26     7    31    1
    27    16    26    1
    28     3    13   ar
    29    37    15    1
    30    26    17    1
    31    15    36    1
    32    25    10    1
    33    25    27    1
    34    10    35    1
    35    10    34    1
    36     2    13   ar
    37     2    29    1
    38    21    27    2
    39    27    19    1
    40    27    18    1
