@<TRIPOS>MOLECULE
/tmp/ewbell/vina_2gz2_2gz2_lig/vina/vina1.pdbqt
 37 39 0 0 0
SMALL
GASTEIGER

@<TRIPOS>ATOM
      1  C6        25.9960   42.8550   27.9790 C.3   719  INH719      0.1830
      2  C7        26.6460   42.0150   26.8770 C.3   719  INH719      0.2140
      3  C8        27.1160   42.9410   29.0130 C.3   719  INH719      0.1800
      4  C9        28.0720   42.5300   26.9410 C.3   719  INH719      0.2630
      5  O7        28.3710   42.6040   28.3600 O.3   719  INH719     -0.3530
      6  N4        28.9180   41.5270   26.3050 N.pl3 719  INH719     -0.2970
      7  C2        29.3740   41.5380   25.0540 C.3   719  INH719      0.1880
      8  N3        30.1030   40.4410   24.8540 N.pl3 719  INH719     -0.3460
      9  C3        30.0950   39.7220   25.9800 C.2   719  INH719      0.1220
     10  H3        30.5850   40.1920   23.9910 H     719  INH719      0.1670
     11  C4        29.3290   40.4180   26.9040 C.2   719  INH719      0.1420
     12  C5        30.6610   38.5070   26.3770 C.3   719  INH719      0.1310
     13  N1        29.1590   39.9250   28.1450 N.pl3 719  INH719     -0.3360
     14  C1        29.7160   38.7700   28.4840 C.3   719  INH719      0.1830
     15  H1        28.6000   40.4390   28.8260 H     719  INH719      0.1680
     16  N2        30.4570   38.0680   27.6290 N.3   719  INH719     -0.3370
     17  H2        30.8730   37.1860   27.9280 H     719  INH719      0.1680
     18  N5        31.4140   37.8020   25.5370 N.3   719  INH719     -0.3830
     19  H10       31.1730   36.8430   25.3330 H     719  INH719      0.1570
     20  H9        32.2270   38.2340   25.1190 H     719  INH719      0.1570
     21  O9        26.0970   42.3070   25.5930 O.3   719  INH719     -0.2840
     22  P1        24.8560   41.4210   25.0760 P.3   719  INH719      0.3910
     23  O5        23.6360   41.6440   26.0970 O.2   719  INH719     -0.6320
     24  O1        25.2570   39.8690   25.2720 O.3   719  INH719     -0.3070
     25  H         25.9500   39.6310   24.6360 H     719  INH719      0.2220
     26  O2        24.4730   41.6790   23.6750 O.3   719  INH719     -0.3070
     27  H         23.9330   42.4840   23.6310 H     719  INH719      0.2220
     28  O8        25.6700   44.1640   27.5100 O.3   719  INH719     -0.3900
     29  H11       25.8940   44.3340   26.5420 H     719  INH719      0.2100
     30  C10       26.8020   41.8190   29.9670 C.3   719  INH719      0.2150
     31  O10       25.4400   41.9080   30.2440 O.3   719  INH719     -0.2940
     32  P2        24.4600   40.6250   30.2200 P.3   719  INH719      0.3900
     33  O6        24.3900   39.9920   31.5630 O.2   719  INH719     -0.6320
     34  O3        25.0650   39.7010   29.0580 O.3   719  INH719     -0.3070
     35  H         26.0310   39.6670   29.1410 H     719  INH719      0.2220
     36  O4        23.0270   41.1570   29.6620 O.3   719  INH719     -0.3070
     37  H         22.7260   40.5820   28.9420 H     719  INH719      0.2220
@<TRIPOS>BOND
     1    27    26    1
     2    26    22    1
     3    10     8    1
     4    25    24    1
     5     8     7    1
     6     8     9    1
     7     7     6    1
     8    22    24    1
     9    22    21    1
    10    22    23    2
    11    20    18    1
    12    19    18    1
    13    18    12    1
    14    21     2    1
    15     9    12    1
    16     9    11    2
    17     6    11    1
    18     6     4    1
    19    12    16    1
    20    29    28    1
    21     2     4    1
    22     2     1    1
    23    11    13    1
    24     4     5    1
    25    28     1    1
    26    16    17    1
    27    16    14    1
    28     1     3    1
    29    13    14    1
    30    13    15    1
    31     5     3    1
    32    37    36    1
    33     3    30    1
    34    34    35    1
    35    34    32    1
    36    36    32    1
    37    30    31    1
    38    32    31    1
    39    32    33    2
