@<TRIPOS>MOLECULE
/tmp/ewbell/vina_2gz2_2gz2_lig/vina/vina3.pdbqt
 37 39 0 0 0
SMALL
GASTEIGER

@<TRIPOS>ATOM
      1  C6        26.2030   43.2250   28.5070 C.3   719  INH719      0.1830
      2  C7        26.8280   43.1940   29.9040 C.3   719  INH719      0.2140
      3  C8        25.4430   41.9010   28.4720 C.3   719  INH719      0.1800
      4  C9        25.7170   42.5200   30.6890 C.3   719  INH719      0.2630
      5  O7        25.2770   41.4300   29.8370 O.3   719  INH719     -0.3530
      6  N4        26.3170   41.9900   31.9080 N.pl3 719  INH719     -0.2970
      7  C2        25.9260   42.2180   33.1610 C.3   719  INH719      0.1880
      8  N3        26.7370   41.5610   33.9890 N.pl3 719  INH719     -0.3460
      9  C3        27.6560   40.9270   33.2580 C.2   719  INH719      0.1220
     10  H3        26.6670   41.5450   35.0060 H     719  INH719      0.1670
     11  C4        27.3880   41.2090   31.9270 C.2   719  INH719      0.1420
     12  C5        28.7460   40.1000   33.5480 C.3   719  INH719      0.1310
     13  N1        28.1610   40.6830   30.9580 N.pl3 719  INH719     -0.3360
     14  C1        29.1830   39.8990   31.2740 C.3   719  INH719      0.1830
     15  H1        27.9600   40.8870   29.9780 H     719  INH719      0.1680
     16  N2        29.4790   39.6040   32.5390 N.3   719  INH719     -0.3370
     17  H2        30.2700   38.9930   32.7420 H     719  INH719      0.1680
     18  N5        29.0440   39.7850   34.8060 N.3   719  INH719     -0.3830
     19  H10       29.6650   39.0110   34.9950 H     719  INH719      0.1570
     20  H9        28.6370   40.3210   35.5600 H     719  INH719      0.1570
     21  O9        27.0390   44.5070   30.4200 O.3   719  INH719     -0.2840
     22  P1        28.5320   44.9230   30.8560 P.3   719  INH719      0.3910
     23  O5        29.0660   46.0090   29.7990 O.2   719  INH719     -0.6320
     24  O1        29.4800   43.6380   30.6170 O.3   719  INH719     -0.3070
     25  H         30.2070   43.6480   31.2580 H     719  INH719      0.2220
     26  O2        28.6440   45.3920   32.2500 O.3   719  INH719     -0.3070
     27  H         27.7820   45.7160   32.5530 H     719  INH719      0.2220
     28  O8        25.2860   44.3120   28.3720 O.3   719  INH719     -0.3900
     29  H11       25.6010   45.1820   28.7710 H     719  INH719      0.2100
     30  C10       26.4060   40.9600   27.7970 C.3   719  INH719      0.2150
     31  O10       25.6690   40.2610   26.8430 O.3   719  INH719     -0.2940
     32  P2        25.1370   40.9430   25.4800 P.3   719  INH719      0.3900
     33  O6        24.8490   39.9080   24.4530 O.2   719  INH719     -0.6320
     34  O3        26.2920   41.9870   25.0960 O.3   719  INH719     -0.3070
     35  H         25.8930   42.8400   24.8650 H     719  INH719      0.2220
     36  O4        23.8460   41.8430   25.8960 O.3   719  INH719     -0.3070
     37  H         23.7680   42.5950   25.2890 H     719  INH719      0.2220
@<TRIPOS>BOND
     1    33    32    2
     2    35    34    1
     3    34    32    1
     4    37    36    1
     5    32    36    1
     6    32    31    1
     7    31    30    1
     8    30     3    1
     9    28     1    1
    10    28    29    1
    11     3     1    1
    12     3     5    1
    13     1     2    1
    14    23    22    2
    15     5     4    1
    16     2    21    1
    17     2     4    1
    18    15    13    1
    19    21    22    1
    20    24    22    1
    21    24    25    1
    22     4     6    1
    23    22    26    1
    24    13    14    1
    25    13    11    1
    26    14    16    1
    27     6    11    1
    28     6     7    1
    29    11     9    2
    30    26    27    1
    31    16    17    1
    32    16    12    1
    33     7     8    1
    34     9    12    1
    35     9     8    1
    36    12    18    1
    37     8    10    1
    38    18    19    1
    39    18    20    1
