@<TRIPOS>MOLECULE
/tmp/ewbell/vina_2gz2_2gz2_lig/vina/vina5.pdbqt
 37 39 0 0 0
SMALL
GASTEIGER

@<TRIPOS>ATOM
      1  C6        24.4690   40.9060   30.2960 C.3   719  INH719      0.1830
      2  C7        25.5620   41.6270   29.5020 C.3   719  INH719      0.2140
      3  C8        24.5550   41.6000   31.6530 C.3   719  INH719      0.1800
      4  C9        25.4180   43.0350   30.0500 C.3   719  INH719      0.2630
      5  O7        25.2660   42.8560   31.4820 O.3   719  INH719     -0.3530
      6  N4        26.6650   43.7350   29.7640 N.pl3 719  INH719     -0.2970
      7  C2        27.0360   44.2740   28.6040 C.3   719  INH719      0.1880
      8  N3        28.2460   44.8110   28.7480 N.pl3 719  INH719     -0.3460
      9  C3        28.6520   44.5960   30.0020 C.2   719  INH719      0.1220
     10  H3        28.7730   45.3020   28.0260 H     719  INH719      0.1670
     11  C4        27.6400   43.9000   30.6470 C.2   719  INH719      0.1420
     12  C5        29.8020   44.9100   30.7330 C.3   719  INH719      0.1310
     13  N1        27.7770   43.5590   31.9420 N.pl3 719  INH719     -0.3360
     14  C1        28.8820   43.8790   32.6010 C.3   719  INH719      0.1830
     15  H1        27.0300   43.0520   32.4170 H     719  INH719      0.1680
     16  N2        29.8800   44.5430   32.0210 N.3   719  INH719     -0.3370
     17  H2        30.7130   44.7760   32.5630 H     719  INH719      0.1680
     18  N5        30.8010   45.5860   30.1700 N.3   719  INH719     -0.3830
     19  H10       30.6020   46.4160   29.6300 H     719  INH719      0.1570
     20  H9        31.7490   45.2530   30.2830 H     719  INH719      0.1570
     21  O9        25.2830   41.6350   28.1030 O.3   719  INH719     -0.2840
     22  P1        26.1020   40.6210   27.1580 P.3   719  INH719      0.3910
     23  O5        27.6480   41.0600   27.1920 O.2   719  INH719     -0.6320
     24  O1        25.6440   40.9020   25.6350 O.3   719  INH719     -0.3070
     25  H         24.7650   41.3110   25.6320 H     719  INH719      0.2220
     26  O2        25.9140   39.1970   27.4960 O.3   719  INH719     -0.3070
     27  H         26.4780   38.6520   26.9260 H     719  INH719      0.2220
     28  O8        23.1800   41.1250   29.7210 O.3   719  INH719     -0.3900
     29  H11       23.0280   40.6660   28.8370 H     719  INH719      0.2100
     30  C10       25.4510   40.6940   32.4560 C.3   719  INH719      0.2150
     31  O10       26.0240   41.4870   33.4480 O.3   719  INH719     -0.2940
     32  P2        26.8690   40.8690   34.6770 P.3   719  INH719      0.3900
     33  O6        27.7550   39.7720   34.2060 O.2   719  INH719     -0.6320
     34  O3        25.7460   40.4340   35.7370 O.3   719  INH719     -0.3070
     35  H         25.8640   39.5000   35.9680 H     719  INH719      0.2220
     36  O4        27.6620   42.1160   35.3570 O.3   719  INH719     -0.3070
     37  H         27.1860   42.9410   35.1740 H     719  INH719      0.2220
@<TRIPOS>BOND
     1    25    24    1
     2    24    22    1
     3    27    26    1
     4    22    23    2
     5    22    26    1
     6    22    21    1
     7    10     8    1
     8    21     2    1
     9     7     8    1
    10     7     6    1
    11     8     9    1
    12    29    28    1
    13     2     4    1
    14     2     1    1
    15    19    18    1
    16    28     1    1
    17     6     4    1
    18     6    11    1
    19     9    11    2
    20     9    12    1
    21     4     5    1
    22    18    20    1
    23    18    12    1
    24     1     3    1
    25    11    13    1
    26    12    16    1
    27     5     3    1
    28     3    30    1
    29    13    15    1
    30    13    14    1
    31    16    17    1
    32    16    14    1
    33    30    31    1
    34    31    32    1
    35    33    32    2
    36    32    36    1
    37    32    34    1
    38    37    36    1
    39    34    35    1
