@<TRIPOS>MOLECULE
/tmp/ewbell/vina_2gz2_2gz2_lig/vina/vina4.pdbqt
 37 39 0 0 0
SMALL
GASTEIGER

@<TRIPOS>ATOM
      1  C6        26.0450   42.8640   28.0080 C.3   719  INH719      0.1830
      2  C7        26.6940   42.0110   26.9150 C.3   719  INH719      0.2140
      3  C8        27.1870   43.0190   29.0090 C.3   719  INH719      0.1800
      4  C9        28.1040   42.5730   26.9260 C.3   719  INH719      0.2630
      5  O7        28.4350   42.7010   28.3330 O.3   719  INH719     -0.3530
      6  N4        28.9660   41.5770   26.2990 N.pl3 719  INH719     -0.2970
      7  C2        29.3870   41.5610   25.0360 C.3   719  INH719      0.1880
      8  N3        30.1470   40.4830   24.8520 N.pl3 719  INH719     -0.3460
      9  C3        30.1930   39.8020   26.0000 C.2   719  INH719      0.1220
     10  H3        30.6140   40.2210   23.9840 H     719  INH719      0.1670
     11  C4        29.4290   40.5030   26.9220 C.2   719  INH719      0.1420
     12  C5        30.8100   38.6200   26.4200 C.3   719  INH719      0.1310
     13  N1        29.3090   40.0450   28.1830 N.pl3 719  INH719     -0.3360
     14  C1        29.9140   38.9220   28.5440 C.3   719  INH719      0.1830
     15  H1        28.7520   40.5640   28.8620 H     719  INH719      0.1680
     16  N2        30.6550   38.2160   27.6910 N.3   719  INH719     -0.3370
     17  H2        31.1080   37.3590   28.0060 H     719  INH719      0.1680
     18  N5        31.5640   37.9120   25.5830 N.3   719  INH719     -0.3830
     19  H10       32.4590   37.5610   25.8910 H     719  INH719      0.1570
     20  H9        31.2340   37.7430   24.6430 H     719  INH719      0.1570
     21  O9        26.1030   42.2450   25.6380 O.3   719  INH719     -0.2840
     22  P1        24.8130   41.3740   25.2250 P.3   719  INH719      0.3910
     23  O5        25.2460   39.8270   25.2260 O.2   719  INH719     -0.6320
     24  O1        24.4910   41.6940   23.6750 O.3   719  INH719     -0.3070
     25  H         25.0480   42.4280   23.3740 H     719  INH719      0.2220
     26  O2        23.6230   41.6270   26.0600 O.3   719  INH719     -0.3070
     27  H         23.6180   41.0110   26.8100 H     719  INH719      0.2220
     28  O8        25.6640   44.1470   27.5070 O.3   719  INH719     -0.3900
     29  H11       24.7420   44.1850   27.1010 H     719  INH719      0.2100
     30  C10       26.9340   41.9180   30.0040 C.3   719  INH719      0.2150
     31  O10       28.1340   41.7180   30.6840 O.3   719  INH719     -0.2940
     32  P2        28.3250   42.0930   32.2430 P.3   719  INH719      0.3900
     33  O6        27.8930   43.4910   32.5030 O.2   719  INH719     -0.6320
     34  O3        29.8750   41.7920   32.5230 O.3   719  INH719     -0.3070
     35  H         30.2760   41.3950   31.7340 H     719  INH719      0.2220
     36  O4        27.4970   40.9740   33.0850 O.3   719  INH719     -0.3070
     37  H         28.0700   40.2120   33.2620 H     719  INH719      0.2220
@<TRIPOS>BOND
     1    25    24    1
     2    24    22    1
     3    10     8    1
     4    20    18    1
     5     8     7    1
     6     8     9    1
     7     7     6    1
     8    22    23    2
     9    22    21    1
    10    22    26    1
    11    18    19    1
    12    18    12    1
    13    21     2    1
    14     9    12    1
    15     9    11    2
    16    26    27    1
    17     6    11    1
    18     6     4    1
    19    12    16    1
    20     2     4    1
    21     2     1    1
    22    11    13    1
    23     4     5    1
    24    29    28    1
    25    28     1    1
    26    16    17    1
    27    16    14    1
    28     1     3    1
    29    13    14    1
    30    13    15    1
    31     5     3    1
    32     3    30    1
    33    30    31    1
    34    31    32    1
    35    35    34    1
    36    32    33    2
    37    32    34    1
    38    32    36    1
    39    36    37    1
