@<TRIPOS>MOLECULE
/tmp/ewbell/vina_2gz2_2gz2_lig/vina/vina2.pdbqt
 37 39 0 0 0
SMALL
GASTEIGER

@<TRIPOS>ATOM
      1  C6        28.6330   38.8860   26.7940 C.3   719  INH719      0.1830
      2  C7        28.2660   40.3600   26.9800 C.3   719  INH719      0.2140
      3  C8        30.0640   38.8470   27.3230 C.3   719  INH719      0.1800
      4  C9        28.9870   40.6630   28.2810 C.3   719  INH719      0.2630
      5  O7        30.2860   40.0330   28.1330 O.3   719  INH719     -0.3530
      6  N4        29.1390   42.1110   28.3590 N.pl3 719  INH719     -0.2970
      7  C2        29.7450   42.9030   27.4760 C.3   719  INH719      0.1880
      8  N3        29.6810   44.1600   27.9140 N.pl3 719  INH719     -0.3460
      9  C3        29.0470   44.1620   29.0890 C.2   719  INH719      0.1220
     10  H3        30.0530   44.9800   27.4350 H     719  INH719      0.1670
     11  C4        28.7080   42.8470   29.3730 C.2   719  INH719      0.1420
     12  C5        28.6850   45.1480   30.0120 C.3   719  INH719      0.1310
     13  N1        28.0400   42.5540   30.5050 N.pl3 719  INH719     -0.3360
     14  C1        27.7110   43.5190   31.3530 C.3   719  INH719      0.1830
     15  H1        27.7860   41.5870   30.7120 H     719  INH719      0.1680
     16  N2        28.0190   44.7940   31.1220 N.3   719  INH719     -0.3370
     17  H2        27.7450   45.5090   31.7950 H     719  INH719      0.1680
     18  N5        28.9730   46.4280   29.7860 N.3   719  INH719     -0.3830
     19  H10       29.5510   46.9330   30.4420 H     719  INH719      0.1570
     20  H9        28.6020   46.8810   28.9630 H     719  INH719      0.1570
     21  O9        26.8630   40.5390   27.1660 O.3   719  INH719     -0.2840
     22  P1        26.0390   41.3280   26.0300 P.3   719  INH719      0.3910
     23  O5        24.8550   42.1360   26.7570 O.2   719  INH719     -0.6320
     24  O1        25.2730   40.2250   25.1340 O.3   719  INH719     -0.3070
     25  H         25.2880   40.4970   24.2030 H     719  INH719      0.2220
     26  O2        26.8710   42.1970   25.1750 O.3   719  INH719     -0.3070
     27  H         26.3230   42.5810   24.4730 H     719  INH719      0.2220
     28  O8        27.8000   38.0400   27.5890 O.3   719  INH719     -0.3900
     29  H11       26.9840   38.4900   27.9730 H     719  INH719      0.2100
     30  C10       30.9030   39.0000   26.0810 C.3   719  INH719      0.2150
     31  O10       30.7640   37.8140   25.3640 O.3   719  INH719     -0.2940
     32  P2        31.8180   36.5970   25.4810 P.3   719  INH719      0.3900
     33  O6        31.2770   35.5170   26.3480 O.2   719  INH719     -0.6320
     34  O3        33.1580   37.2970   26.0140 O.3   719  INH719     -0.3070
     35  H         32.9720   38.2230   26.2370 H     719  INH719      0.2220
     36  O4        32.1400   36.1250   23.9570 O.3   719  INH719     -0.3070
     37  H         32.2410   36.9060   23.3910 H     719  INH719      0.2220
@<TRIPOS>BOND
     1    37    36    1
     2    36    32    1
     3    25    24    1
     4    27    26    1
     5    24    22    1
     6    26    22    1
     7    31    32    1
     8    31    30    1
     9    32    34    1
    10    32    33    2
    11    34    35    1
    12    22    23    2
    13    22    21    1
    14    30     3    1
    15     1     2    1
    16     1     3    1
    17     1    28    1
    18     2    21    1
    19     2     4    1
    20     3     5    1
    21    10     8    1
    22     7     8    1
    23     7     6    1
    24    28    29    1
    25     8     9    1
    26     5     4    1
    27     4     6    1
    28     6    11    1
    29    20    18    1
    30     9    11    2
    31     9    12    1
    32    11    13    1
    33    18    12    1
    34    18    19    1
    35    12    16    1
    36    13    15    1
    37    13    14    1
    38    16    14    1
    39    16    17    1
