@<TRIPOS>MOLECULE
./ligand/3cda_lig.pdb
 80 83 0 0 0
SMALL
GASTEIGER

@<TRIPOS>ATOM
      1  N1        21.7720   26.0980   14.1560 N.am  1666  INH1666    -0.2803
      2  C1        16.5350   24.4240   17.1810 C.ar  1666  INH1666    -0.0512
      3  C2        15.5700   24.0430   18.1180 C.ar  1666  INH1666    -0.0259
      4  C3        18.1760   23.7710   15.3620 C.ar  1666  INH1666     0.0113
      5  C4        18.0090   23.5820   14.0030 C.ar  1666  INH1666     0.0280
      6  C5        20.0630   24.3550   14.3530 C.ar  1666  INH1666     0.1135
      7  C6        19.9790   24.5550   16.9480 C.ar  1666  INH1666    -0.0151
      8  C7        20.9440   25.3630   19.4560 C.ar  1666  INH1666    -0.0617
      9  C8        20.0850   23.6380   17.9850 C.ar  1666  INH1666    -0.0539
     10  C9        22.9810   26.6470   13.8430 C.ar  1666  INH1666     0.0338
     11  C10       25.3430   27.9700   13.0700 C.ar  1666  INH1666     0.1051
     12  C11       25.3920   26.6610   13.5650 C.ar  1666  INH1666    -0.0336
     13  C12       24.2180   25.9960   13.9440 C.ar  1666  INH1666    -0.0386
     14  C13       19.8600   25.2760   11.4240 C.3   1666  INH1666    -0.0445
     15  C14       16.7500   23.1070   13.3180 C.3   1666  INH1666    -0.0093
     16  C15       15.5310   21.1720   12.3300 C.3   1666  INH1666     0.0579
     17  O1        16.8040   17.6360   16.1000 O.co2 1666  INH1666    -0.2463
     18  C16       15.7920   17.3590   15.4610 C.2   1666  INH1666     0.3585
     19  O2        14.7630   16.7640   16.0510 O.co2 1666  INH1666    -0.2463
     20  C17       15.6940   17.7240   14.0070 C.3   1666  INH1666     0.0752
     21  C18       15.4480   19.2200   13.8960 C.3   1666  INH1666     0.0678
     22  O3        14.1610   19.5490   14.3790 O.3   1666  INH1666    -0.3912
     23  C19       15.5330   19.6580   12.4450 C.3   1666  INH1666    -0.0002
     24  O4        15.2560   21.5150   10.9810 O.3   1666  INH1666    -0.3917
     25  C20       16.9010   21.7190   12.7340 C.3   1666  INH1666    -0.0214
     26  C21       17.1390   23.4570   16.3900 C.ar  1666  INH1666    -0.0154
     27  C22       16.7950   22.1160   16.5500 C.ar  1666  INH1666    -0.0512
     28  C23       15.8420   21.7320   17.4870 C.ar  1666  INH1666    -0.0259
     29  C24       15.2310   22.7010   18.2730 C.ar  1666  INH1666     0.1234
     30  F1        14.3070   22.3300   19.1750 F     1666  INH1666    -0.2055
     31  N2        19.1790   23.9410   13.4110 N.ar  1666  INH1666    -0.3366
     32  C25       19.3720   23.9140   11.9200 C.3   1666  INH1666     0.0293
     33  C26       20.2500   22.7570   11.4730 C.3   1666  INH1666    -0.0445
     34  C27       19.4490   24.2060   15.5950 C.ar  1666  INH1666     0.0201
     35  C28       20.3380   25.8860   17.1850 C.ar  1666  INH1666    -0.0539
     36  C29       20.8300   26.2930   18.4260 C.ar  1666  INH1666    -0.0612
     37  C30       20.5740   24.0390   19.2300 C.ar  1666  INH1666    -0.0612
     38  C31       21.4770   24.7970   14.1410 C.2   1666  INH1666     0.2654
     39  O5        22.1730   23.9760   13.5700 O.2   1666  INH1666    -0.2682
     40  C32       22.9460   27.9460   13.3380 C.ar  1666  INH1666    -0.0386
     41  C33       24.1110   28.6120   12.9670 C.ar  1666  INH1666    -0.0336
     42  S1        26.6630   28.7720   12.6430 S.O2  1666  INH1666     0.0559
     43  O6        27.7390   27.8980   12.2940 O.2   1666  INH1666    -0.1533
     44  O7        26.3590   29.6320   11.5290 O.2   1666  INH1666    -0.1533
     45  N3        27.0590   29.6990   13.8850 N.3   1666  INH1666    -0.2035
     46  H1        21.0410   26.7270   14.4200 H     1666  INH1666     0.1552
     47  H2        16.8090   25.4670   17.0730 H     1666  INH1666     0.0624
     48  H3        15.0830   24.7960   18.7270 H     1666  INH1666     0.0646
     49  H4        21.3180   25.6670   20.4270 H     1666  INH1666     0.0618
     50  H5        19.7870   22.6080   17.8280 H     1666  INH1666     0.0624
     51  H6        26.3470   26.1570   13.6560 H     1666  INH1666     0.0638
     52  H7        24.2670   24.9790   14.3150 H     1666  INH1666     0.0637
     53  H8        19.9970   25.2420   10.3330 H     1666  INH1666     0.0249
     54  H9        20.8180   25.5200   11.9060 H     1666  INH1666     0.0249
     55  H10       19.1160   26.0460   11.6760 H     1666  INH1666     0.0249
     56  H11       16.5040   23.8070   12.5060 H     1666  INH1666     0.0329
     57  H12       15.9310   23.0940   14.0520 H     1666  INH1666     0.0329
     58  H13       14.7570   21.5950   12.9870 H     1666  INH1666     0.0594
     59  H14       16.6330   17.4640   13.4960 H     1666  INH1666     0.0404
     60  H15       14.8600   17.1760   13.5430 H     1666  INH1666     0.0404
     61  H16       16.2080   19.7530   14.4860 H     1666  INH1666     0.0599
     62  H17       14.0240   20.4860   14.3020 H     1666  INH1666     0.2098
     63  H18       16.4620   19.2650   12.0050 H     1666  INH1666     0.0315
     64  H19       14.6690   19.2550   11.8970 H     1666  INH1666     0.0315
     65  H20       15.2510   22.4610   10.8890 H     1666  INH1666     0.2098
     66  H21       17.3520   21.0540   13.4860 H     1666  INH1666     0.0294
     67  H22       17.5510   21.7650   11.8480 H     1666  INH1666     0.0294
     68  H23       17.2760   21.3630   15.9360 H     1666  INH1666     0.0624
     69  H24       15.5780   20.6870   17.6030 H     1666  INH1666     0.0646
     70  H25       18.3830   23.7470   11.4690 H     1666  INH1666     0.0522
     71  H26       20.3600   22.7820   10.3790 H     1666  INH1666     0.0249
     72  H27       19.7850   21.8060   11.7740 H     1666  INH1666     0.0249
     73  H28       21.2410   22.8450   11.9430 H     1666  INH1666     0.0249
     74  H29       20.2320   26.6150   16.3900 H     1666  INH1666     0.0624
     75  H30       21.1210   27.3250   18.5870 H     1666  INH1666     0.0618
     76  H31       20.6670   23.3120   20.0290 H     1666  INH1666     0.0618
     77  H32       21.9910   28.4480   13.2320 H     1666  INH1666     0.0637
     78  H33       24.0590   29.6300   12.5980 H     1666  INH1666     0.0638
     79  H34       27.8630   30.2910   13.8310 H     1666  INH1666     0.1442
     80  H35       26.5020   29.6870   14.7160 H     1666  INH1666     0.1442
@<TRIPOS>BOND
     1    53    14    1
     2    71    33    1
     3    65    24    1
     4    24    16    1
     5    14    55    1
     6    14    54    1
     7    14    32    1
     8    70    32    1
     9    33    72    1
    10    33    32    1
    11    33    73    1
    12    44    42    2
    13    67    25    1
    14    64    23    1
    15    32    31    1
    16    63    23    1
    17    43    42    2
    18    16    23    1
    19    16    25    1
    20    16    58    1
    21    23    21    1
    22    56    15    1
    23    78    41    1
    24    42    11    1
    25    42    45    1
    26    25    15    1
    27    25    66    1
    28    41    11   ar
    29    41    40   ar
    30    11    12   ar
    31    77    40    1
    32    15     5    1
    33    15    57    1
    34    40    10   ar
    35    31     5   ar
    36    31     6   ar
    37    59    20    1
    38    60    20    1
    39    12    51    1
    40    12    13   ar
    41    39    38    2
    42    79    45    1
    43    10    13   ar
    44    10     1    1
    45    45    80    1
    46    21    20    1
    47    21    22    1
    48    21    61    1
    49    13    52    1
    50     5     4   ar
    51    20    18    1
    52    38     1   am
    53    38     6    1
    54     1    46    1
    55    62    22    1
    56     6    34   ar
    57     4    34   ar
    58     4    26    1
    59    18    19   ar
    60    18    17   ar
    61    34     7    1
    62    68    27    1
    63    26    27   ar
    64    26     2   ar
    65    74    35    1
    66    27    28   ar
    67     7    35   ar
    68     7     9   ar
    69    47     2    1
    70     2     3   ar
    71    35    36   ar
    72    28    69    1
    73    28    29   ar
    74    50     9    1
    75     9    37   ar
    76     3    29   ar
    77     3    48    1
    78    29    30    1
    79    36    75    1
    80    36     8   ar
    81    37     8   ar
    82    37    76    1
    83     8    49    1
