@<TRIPOS>MOLECULE
/tmp/ewbell/vina_3cda_3cda_lig/vina/vina2.pdbqt
 51 54 0 0 0
SMALL
GASTEIGER

@<TRIPOS>ATOM
      1  C3        18.6590   24.2130   15.6620 C.ar  1666  INH1666     0.0100
      2  C4        18.6370   24.0180   14.2930 C.ar  1666  INH1666     0.0250
      3  C5        20.6270   24.8340   14.8510 C.ar  1666  INH1666     0.1160
      4  N2        19.8550   24.4000   13.8240 N.ar  1666  INH1666    -0.3400
      5  C27       19.8910   24.6750   16.0230 C.ar  1666  INH1666     0.0200
      6  C31       22.0460   25.3060   14.7850 C.2   1666  INH1666     0.2730
      7  N1        22.3060   26.6130   14.7220 N.am  1666  INH1666    -0.3220
      8  H1        21.6050   27.2330   15.0740 H     1666  INH1666     0.1690
      9  O5        22.8300   24.4640   14.3840 O.2   1666  INH1666    -0.2660
     10  C9        23.4420   27.1790   14.2200 C.ar  1666  INH1666     0.0350
     11  C32       23.3550   27.6590   12.9140 C.ar  1666  INH1666     0.0310
     12  C33       24.4490   28.2450   12.2830 C.ar  1666  INH1666     0.0270
     13  C10       25.6700   28.3350   12.9460 C.ar  1666  INH1666     0.0790
     14  C11       25.7750   27.8460   14.2540 C.ar  1666  INH1666     0.0270
     15  C12       24.6700   27.2630   14.8900 C.ar  1666  INH1666     0.0310
     16  S1        26.9030   29.0250   12.1910 S.O2  1666  INH1666     0.2560
     17  O7        27.8220   29.5560   13.1640 O.2   1666  INH1666    -0.2010
     18  O6        26.4840   30.0690   11.3090 O.2   1666  INH1666    -0.2010
     19  N3        27.6570   27.8650   11.3860 N.3   1666  INH1666    -0.3240
     20  H34       28.4100   27.3670   11.8160 H     1666  INH1666     0.1690
     21  H35       27.3740   27.6390   10.4540 H     1666  INH1666     0.1690
     22  C25       20.2010   24.3750   12.3610 C.3   1666  INH1666     0.0820
     23  C13       20.4350   22.9360   11.8980 C.3   1666  INH1666     0.0320
     24  C26       19.1880   25.1260   11.5150 C.3   1666  INH1666     0.0320
     25  C6        20.2710   25.0370   17.4230 C.ar  1666  INH1666    -0.0230
     26  C28       20.5450   26.3810   17.6970 C.ar  1666  INH1666     0.0120
     27  C29       20.8950   26.8010   18.9810 C.ar  1666  INH1666     0.0010
     28  C7        20.9500   25.8690   20.0150 C.ar  1666  INH1666     0.0000
     29  C30       20.6630   24.5320   19.7500 C.ar  1666  INH1666     0.0010
     30  C8        20.3160   24.1180   18.4630 C.ar  1666  INH1666     0.0120
     31  C14       17.4660   23.5150   13.4830 C.3   1666  INH1666     0.0610
     32  C20       17.2130   22.0370   13.6930 C.3   1666  INH1666     0.0380
     33  C15       16.4720   21.4610   12.4850 C.3   1666  INH1666     0.1200
     34  O4        17.3150   21.4910   11.3440 O.3   1666  INH1666    -0.3950
     35  H20       18.1740   21.8110   11.5930 H     1666  INH1666     0.2100
     36  C19       16.0960   20.0150   12.7610 C.3   1666  INH1666     0.0640
     37  C18       15.6770   19.8270   14.2080 C.3   1666  INH1666     0.1300
     38  C17       16.1940   18.4970   14.7340 C.3   1666  INH1666     0.1410
     39  C16       15.0950   17.4780   14.6280 C.2   1666  INH1666     0.1410
     40  O2        14.4500   17.1010   15.7250 O.2   1666  INH1666    -0.6500
     41  O1        14.8180   16.9810   13.5390 O.3   1666  INH1666    -0.7760
     42  H         14.1560   17.3700   13.0010 H     1666  INH1666     0.1670
     43  O3        14.2650   19.8690   14.2660 O.3   1666  INH1666    -0.3950
     44  H17       13.9250   20.2150   13.4490 H     1666  INH1666     0.2100
     45  C21       17.5270   23.8790   16.5780 C.ar  1666  INH1666    -0.0230
     46  C1        16.5690   24.8020   16.9710 C.ar  1666  INH1666     0.0150
     47  C2        15.5410   24.4040   17.8310 C.ar  1666  INH1666     0.0430
     48  C24       15.4880   23.0960   18.3060 C.ar  1666  INH1666     0.1160
     49  C23       16.4520   22.1730   17.9180 C.ar  1666  INH1666     0.0430
     50  F1        14.5030   22.7100   19.1350 F     1666  INH1666    -0.2060
     51  C22       17.4690   22.5710   17.0570 C.ar  1666  INH1666     0.0150
@<TRIPOS>BOND
     1    21    19    1
     2    18    16    2
     3    34    35    1
     4    34    33    1
     5    19    20    1
     6    19    16    1
     7    24    22    1
     8    23    22    1
     9    16    13    1
    10    16    17    2
    11    12    11   ar
    12    12    13   ar
    13    22     4    1
    14    33    36    1
    15    33    32    1
    16    36    37    1
    17    11    10   ar
    18    13    14   ar
    19    42    41    1
    20    44    43    1
    21    31    32    1
    22    31     2    1
    23    41    39    1
    24     4     2   ar
    25     4     3   ar
    26    37    43    1
    27    37    38    1
    28    10     7    1
    29    10    15   ar
    30    14    15   ar
    31     2     1   ar
    32     9     6    2
    33    39    38    1
    34    39    40    2
    35     7     6   am
    36     7     8    1
    37     6     3    1
    38     3     5   ar
    39     1     5   ar
    40     1    45    1
    41     5    25    1
    42    45    46   ar
    43    45    51   ar
    44    46    47   ar
    45    51    49   ar
    46    25    26   ar
    47    25    30   ar
    48    26    27   ar
    49    47    48   ar
    50    49    48   ar
    51    48    50    1
    52    30    29   ar
    53    27    28   ar
    54    29    28   ar
