@<TRIPOS>MOLECULE
/tmp/ewbell/vina_3cda_3cda_lig/vina/vina1.pdbqt
 51 54 0 0 0
SMALL
GASTEIGER

@<TRIPOS>ATOM
      1  C3        17.8740   23.6930   15.6160 C.ar  1666  INH1666     0.0100
      2  C4        17.6270   23.6070   14.2580 C.ar  1666  INH1666     0.0250
      3  C5        19.4180   24.8870   14.5630 C.ar  1666  INH1666     0.1160
      4  N2        18.5890   24.3410   13.6380 N.ar  1666  INH1666    -0.3400
      5  C27       18.9970   24.4430   15.8150 C.ar  1666  INH1666     0.0200
      6  C31       20.6290   25.7300   14.3130 C.2   1666  INH1666     0.2730
      7  N1        21.8140   25.3420   14.7870 N.am  1666  INH1666    -0.3220
      8  H1        21.9320   24.3660   14.9700 H     1666  INH1666     0.1690
      9  O5        20.3790   26.8940   14.0560 O.2   1666  INH1666    -0.2660
     10  C9        22.8780   26.1560   15.0440 C.ar  1666  INH1666     0.0350
     11  C32       23.8510   26.2170   14.0480 C.ar  1666  INH1666     0.0310
     12  C33       24.9930   27.0000   14.1960 C.ar  1666  INH1666     0.0270
     13  C10       25.1950   27.7210   15.3690 C.ar  1666  INH1666     0.0790
     14  C11       24.2310   27.6610   16.3840 C.ar  1666  INH1666     0.0270
     15  C12       23.0790   26.8760   16.2290 C.ar  1666  INH1666     0.0310
     16  S1        26.5150   28.6190   15.4990 S.O2  1666  INH1666     0.2560
     17  O7        27.4800   28.1940   14.5190 O.2   1666  INH1666    -0.2010
     18  O6        27.0950   28.5450   16.8040 O.2   1666  INH1666    -0.2010
     19  N3        26.0880   30.1200   15.1480 N.3   1666  INH1666    -0.3240
     20  H34       26.7590   30.7550   14.7670 H     1666  INH1666     0.1690
     21  H35       25.1480   30.4230   15.3090 H     1666  INH1666     0.1690
     22  C25       18.6290   24.5250   12.1470 C.3   1666  INH1666     0.0820
     23  C13       18.0040   25.8670   11.7610 C.3   1666  INH1666     0.0320
     24  C26       20.0230   24.3220   11.5780 C.3   1666  INH1666     0.0320
     25  C6        19.5470   24.7840   17.1620 C.ar  1666  INH1666    -0.0230
     26  C28       19.5240   26.1260   17.5550 C.ar  1666  INH1666     0.0120
     27  C29       20.0080   26.5230   18.8020 C.ar  1666  INH1666     0.0010
     28  C7        20.5020   25.5640   19.6830 C.ar  1666  INH1666     0.0000
     29  C30       20.5130   24.2240   19.3010 C.ar  1666  INH1666     0.0010
     30  C8        20.0300   23.8340   18.0510 C.ar  1666  INH1666     0.0120
     31  C14       16.4820   22.8700   13.6060 C.3   1666  INH1666     0.0610
     32  C20       16.9100   21.5390   13.0240 C.3   1666  INH1666     0.0380
     33  C15       15.6820   20.7550   12.5600 C.3   1666  INH1666     0.1200
     34  O4        15.3090   21.1730   11.2560 O.3   1666  INH1666    -0.3950
     35  H20       14.3930   21.4270   11.2540 H     1666  INH1666     0.2100
     36  C19       16.0120   19.2740   12.5100 C.3   1666  INH1666     0.0640
     37  C18       15.1210   18.4830   13.4510 C.3   1666  INH1666     0.1300
     38  C17       15.5920   18.6550   14.8860 C.3   1666  INH1666     0.1410
     39  C16       15.9520   17.3060   15.4400 C.2   1666  INH1666     0.1410
     40  O2        15.0280   16.5980   16.0780 O.2   1666  INH1666    -0.6500
     41  O1        17.0980   16.8770   15.3250 O.3   1666  INH1666    -0.7760
     42  H         17.6030   16.6790   16.0890 H     1666  INH1666     0.1670
     43  O3        15.1760   17.1230   13.0700 O.3   1666  INH1666    -0.3950
     44  H17       14.7350   16.5930   13.7220 H     1666  INH1666     0.2100
     45  C21       17.0710   22.9930   16.6640 C.ar  1666  INH1666    -0.0230
     46  C1        17.0880   21.6170   16.8420 C.ar  1666  INH1666     0.0150
     47  C2        16.3080   21.0440   17.8510 C.ar  1666  INH1666     0.0430
     48  C24       15.5030   21.8440   18.6580 C.ar  1666  INH1666     0.1160
     49  C23       15.4800   23.2210   18.4740 C.ar  1666  INH1666     0.0430
     50  F1        14.7490   21.2970   19.6260 F     1666  INH1666    -0.2060
     51  C22       16.2640   23.7880   17.4750 C.ar  1666  INH1666     0.0150
@<TRIPOS>BOND
     1    35    34    1
     2    34    33    1
     3    24    22    1
     4    23    22    1
     5    22     4    1
     6    36    33    1
     7    36    37    1
     8    33    32    1
     9    32    31    1
    10    43    37    1
    11    43    44    1
    12    37    38    1
    13    31     2    1
    14     4     2   ar
    15     4     3   ar
    16    11    12   ar
    17    11    10   ar
    18     9     6    2
    19    12    13   ar
    20     2     1   ar
    21     6     3    1
    22     6     7   am
    23    17    16    2
    24     3     5   ar
    25    20    19    1
    26     7     8    1
    27     7    10    1
    28    38    39    1
    29    10    15   ar
    30    19    21    1
    31    19    16    1
    32    41    39    1
    33    41    42    1
    34    13    16    1
    35    13    14   ar
    36    39    40    2
    37    16    18    2
    38     1     5   ar
    39     1    45    1
    40     5    25    1
    41    15    14   ar
    42    45    46   ar
    43    45    51   ar
    44    46    47   ar
    45    25    26   ar
    46    25    30   ar
    47    51    49   ar
    48    26    27   ar
    49    47    48   ar
    50    30    29   ar
    51    49    48   ar
    52    48    50    1
    53    27    28   ar
    54    29    28   ar
