@<TRIPOS>MOLECULE
/tmp/ewbell/vina_3cda_3cda_lig/vina/vina5.pdbqt
 51 54 0 0 0
SMALL
GASTEIGER

@<TRIPOS>ATOM
      1  C3        17.4690   27.2840   17.2220 C.ar  1666  INH1666     0.0100
      2  C4        16.6870   27.3810   16.0870 C.ar  1666  INH1666     0.0250
      3  C5        16.6710   25.2650   16.7670 C.ar  1666  INH1666     0.1160
      4  N2        16.2070   26.1350   15.8340 N.ar  1666  INH1666    -0.3400
      5  C27       17.4340   25.9960   17.6750 C.ar  1666  INH1666     0.0200
      6  C31       16.3560   23.8070   16.8860 C.2   1666  INH1666     0.2730
      7  N1        17.0530   22.9200   16.1720 N.am  1666  INH1666    -0.3220
      8  H1        17.9650   23.1970   15.8690 H     1666  INH1666     0.1690
      9  O5        15.2370   23.5730   17.3030 O.2   1666  INH1666    -0.2660
     10  C9        16.6310   21.6720   15.8180 C.ar  1666  INH1666     0.0350
     11  C32       16.9420   20.6490   16.7120 C.ar  1666  INH1666     0.0310
     12  C33       16.5810   19.3290   16.4580 C.ar  1666  INH1666     0.0270
     13  C10       15.9190   19.0020   15.2770 C.ar  1666  INH1666     0.0790
     14  C11       15.6100   20.0180   14.3640 C.ar  1666  INH1666     0.0270
     15  C12       15.9700   21.3480   14.6250 C.ar  1666  INH1666     0.0310
     16  S1        15.5110   17.4740   15.0250 S.O2  1666  INH1666     0.2560
     17  O7        14.2970   17.1800   15.7410 O.2   1666  INH1666    -0.2010
     18  O6        16.5370   16.5640   15.4290 O.2   1666  INH1666    -0.2010
     19  N3        15.2040   17.3320   13.4610 N.3   1666  INH1666    -0.3240
     20  H34       15.5440   16.5400   12.9550 H     1666  INH1666     0.1690
     21  H35       14.6720   18.0360   12.9900 H     1666  INH1666     0.1690
     22  C25       15.3420   25.8280   14.6430 C.3   1666  INH1666     0.0820
     23  C13       16.0900   24.9220   13.6650 C.3   1666  INH1666     0.0320
     24  C26       13.9780   25.2910   15.0440 C.3   1666  INH1666     0.0320
     25  C6        18.1960   25.5060   18.8630 C.ar  1666  INH1666    -0.0230
     26  C28       17.6060   25.6530   20.1230 C.ar  1666  INH1666     0.0120
     27  C29       18.2500   25.2100   21.2790 C.ar  1666  INH1666     0.0010
     28  C7        19.4920   24.5880   21.1770 C.ar  1666  INH1666     0.0000
     29  C30       20.0770   24.4260   19.9230 C.ar  1666  INH1666     0.0010
     30  C8        19.4290   24.8740   18.7700 C.ar  1666  INH1666     0.0120
     31  C14       16.4530   28.6300   15.2710 C.3   1666  INH1666     0.0610
     32  C20       17.6340   28.9700   14.3870 C.3   1666  INH1666     0.0380
     33  C15       17.1760   29.0930   12.9330 C.3   1666  INH1666     0.1200
     34  O4        17.2220   27.8220   12.3040 O.3   1666  INH1666    -0.3950
     35  H20       18.1090   27.6430   12.0150 H     1666  INH1666     0.2100
     36  C19       15.7420   29.5930   12.8910 C.3   1666  INH1666     0.0640
     37  C18       14.9860   28.9870   11.7230 C.3   1666  INH1666     0.1300
     38  C17       14.1370   30.0490   11.0420 C.3   1666  INH1666     0.1410
     39  C16       13.2470   29.3790   10.0330 C.2   1666  INH1666     0.1410
     40  O2        12.0970   28.8500   10.4300 O.2   1666  INH1666    -0.6500
     41  O1        13.5970   29.3010    8.8580 O.3   1666  INH1666    -0.7760
     42  H         13.7920   28.4640    8.4810 H     1666  INH1666     0.1670
     43  O3        14.1720   27.9440   12.2190 O.3   1666  INH1666    -0.3950
     44  H17       13.3390   28.3000   12.5050 H     1666  INH1666     0.2100
     45  C21       18.1580   28.4380   17.8730 C.ar  1666  INH1666    -0.0230
     46  C1        19.4780   28.7800   17.6150 C.ar  1666  INH1666     0.0150
     47  C2        20.0450   29.8800   18.2660 C.ar  1666  INH1666     0.0430
     48  C24       19.2980   30.6160   19.1830 C.ar  1666  INH1666     0.1160
     49  C23       17.9790   30.2690   19.4470 C.ar  1666  INH1666     0.0430
     50  F1        19.8400   31.6710   19.8130 F     1666  INH1666    -0.2060
     51  C22       17.4170   29.1790   18.7910 C.ar  1666  INH1666     0.0150
@<TRIPOS>BOND
     1    42    41    1
     2    41    39    1
     3    39    40    2
     4    39    38    1
     5    38    37    1
     6    37    43    1
     7    37    36    1
     8    35    34    1
     9    43    44    1
    10    34    33    1
    11    36    33    1
    12    33    32    1
    13    20    19    1
    14    21    19    1
    15    19    16    1
    16    23    22    1
    17    14    15   ar
    18    14    13   ar
    19    32    31    1
    20    15    10   ar
    21    22    24    1
    22    22     4    1
    23    16    13    1
    24    16    18    2
    25    16    17    2
    26    31     2    1
    27    13    12   ar
    28    10     7    1
    29    10    11   ar
    30     4     2   ar
    31     4     3   ar
    32     8     7    1
    33     2     1   ar
    34     7     6   am
    35    12    11   ar
    36     3     6    1
    37     3     5   ar
    38     6     9    2
    39     1     5   ar
    40     1    45    1
    41    46    45   ar
    42    46    47   ar
    43     5    25    1
    44    45    51   ar
    45    47    48   ar
    46    30    25   ar
    47    30    29   ar
    48    51    49   ar
    49    25    26   ar
    50    48    49   ar
    51    48    50    1
    52    29    28   ar
    53    26    27   ar
    54    28    27   ar
