@<TRIPOS>MOLECULE
/tmp/ewbell/vina_3cda_3cda_lig/vina/vina4.pdbqt
 51 54 0 0 0
SMALL
GASTEIGER

@<TRIPOS>ATOM
      1  C3        17.8350   24.6750   14.2610 C.ar  1666  INH1666     0.0100
      2  C4        16.5470   24.2250   14.4830 C.ar  1666  INH1666     0.0250
      3  C5        17.1300   25.5360   16.1800 C.ar  1666  INH1666     0.1160
      4  N2        16.1380   24.7710   15.6590 N.ar  1666  INH1666    -0.3400
      5  C27       18.1910   25.5160   15.2770 C.ar  1666  INH1666     0.0200
      6  C31       17.0880   26.3470   17.4370 C.2   1666  INH1666     0.2730
      7  N1        16.7990   27.6480   17.3750 N.am  1666  INH1666    -0.3220
      8  H1        16.2820   27.9610   16.5780 H     1666  INH1666     0.1690
      9  O5        17.7120   25.8610   18.3630 O.2   1666  INH1666    -0.2660
     10  C9        17.1470   28.5890   18.3000 C.ar  1666  INH1666     0.0350
     11  C32       18.4310   29.1150   18.1790 C.ar  1666  INH1666     0.0310
     12  C33       18.9110   30.0710   19.0700 C.ar  1666  INH1666     0.0270
     13  C10       18.1120   30.5010   20.1260 C.ar  1666  INH1666     0.0790
     14  C11       16.8230   29.9730   20.2670 C.ar  1666  INH1666     0.0270
     15  C12       16.3400   29.0150   19.3640 C.ar  1666  INH1666     0.0310
     16  S1        18.6940   31.6100   21.1250 S.O2  1666  INH1666     0.2560
     17  O7        18.3610   32.9200   20.6300 O.2   1666  INH1666    -0.2010
     18  O6        20.1110   31.5050   21.2860 O.2   1666  INH1666    -0.2010
     19  N3        17.9430   31.4090   22.5240 N.3   1666  INH1666    -0.3240
     20  H34       18.1350   32.0250   23.2870 H     1666  INH1666     0.1690
     21  H35       17.2820   30.6670   22.6340 H     1666  INH1666     0.1690
     22  C25       14.7930   24.4770   16.2620 C.3   1666  INH1666     0.0820
     23  C13       14.9580   23.8360   17.6400 C.3   1666  INH1666     0.0320
     24  C26       13.8840   25.6950   16.2660 C.3   1666  INH1666     0.0320
     25  C6        19.5320   26.1640   15.3950 C.ar  1666  INH1666    -0.0230
     26  C28       19.6780   27.4580   14.8870 C.ar  1666  INH1666     0.0120
     27  C29       20.8960   28.1350   14.9690 C.ar  1666  INH1666     0.0010
     28  C7        21.9810   27.5200   15.5900 C.ar  1666  INH1666     0.0000
     29  C30       21.8360   26.2360   16.1110 C.ar  1666  INH1666     0.0010
     30  C8        20.6160   25.5640   16.0220 C.ar  1666  INH1666     0.0120
     31  C14       15.7710   23.2770   13.6000 C.3   1666  INH1666     0.0610
     32  C20       16.2770   21.8530   13.6990 C.3   1666  INH1666     0.0380
     33  C15       15.4640   20.9480   12.7720 C.3   1666  INH1666     0.1200
     34  O4        15.5550   21.4190   11.4370 O.3   1666  INH1666    -0.3950
     35  H20       14.8040   21.1160   10.9410 H     1666  INH1666     0.2100
     36  C19       16.0260   19.5370   12.8180 C.3   1666  INH1666     0.0640
     37  C18       15.1520   18.6280   13.6640 C.3   1666  INH1666     0.1300
     38  C17       15.6280   18.6390   15.1070 C.3   1666  INH1666     0.1410
     39  C16       15.9640   17.2320   15.5140 C.2   1666  INH1666     0.1410
     40  O2        15.0340   16.4840   16.0950 O.2   1666  INH1666    -0.6500
     41  O1        17.0960   16.7910   15.3340 O.3   1666  INH1666    -0.7760
     42  H         17.7270   16.8230   16.0260 H     1666  INH1666     0.1670
     43  O3        15.2250   17.3230   13.1260 O.3   1666  INH1666    -0.3950
     44  H17       14.7160   16.7300   13.6650 H     1666  INH1666     0.2100
     45  C21       18.6470   24.3440   13.0520 C.ar  1666  INH1666    -0.0230
     46  C1        18.4810   24.9770   11.8280 C.ar  1666  INH1666     0.0150
     47  C2        19.2870   24.6060   10.7470 C.ar  1666  INH1666     0.0430
     48  C24       20.2350   23.5970   10.8900 C.ar  1666  INH1666     0.1160
     49  C23       20.3960   22.9580   12.1130 C.ar  1666  INH1666     0.0430
     50  F1        21.0090   23.2360    9.8520 F     1666  INH1666    -0.2060
     51  C22       19.5980   23.3340   13.1880 C.ar  1666  INH1666     0.0150
@<TRIPOS>BOND
     1    50    48    1
     2    47    48   ar
     3    47    46   ar
     4    48    49   ar
     5    35    34    1
     6    34    33    1
     7    46    45   ar
     8    49    51   ar
     9    33    36    1
    10    33    32    1
    11    36    37    1
    12    45    51   ar
    13    45     1    1
    14    43    37    1
    15    43    44    1
    16    31    32    1
    17    31     2    1
    18    37    38    1
    19     1     2   ar
    20     1     5   ar
    21     2     4   ar
    22    26    27   ar
    23    26    25   ar
    24    27    28   ar
    25    38    39    1
    26     5    25    1
    27     5     3   ar
    28    41    39    1
    29    41    42    1
    30    25    30   ar
    31    39    40    2
    32    28    29   ar
    33     4     3   ar
    34     4    22    1
    35    30    29   ar
    36     3     6    1
    37    22    24    1
    38    22    23    1
    39     8     7    1
    40     7     6   am
    41     7    10    1
    42     6     9    2
    43    11    10   ar
    44    11    12   ar
    45    10    15   ar
    46    12    13   ar
    47    15    14   ar
    48    13    14   ar
    49    13    16    1
    50    17    16    2
    51    16    18    2
    52    16    19    1
    53    19    21    1
    54    19    20    1
