@<TRIPOS>MOLECULE
/tmp/ewbell/vina_3cda_3cda_lig/vina/vina3.pdbqt
 51 54 0 0 0
SMALL
GASTEIGER

@<TRIPOS>ATOM
      1  C3        18.5450   24.4170   15.0670 C.ar  1666  INH1666     0.0100
      2  C4        18.6360   23.9040   13.7870 C.ar  1666  INH1666     0.0250
      3  C5        20.2580   25.3990   14.0570 C.ar  1666  INH1666     0.1160
      4  N2        19.6950   24.5170   13.1940 N.ar  1666  INH1666    -0.3400
      5  C27       19.5620   25.3070   15.2610 C.ar  1666  INH1666     0.0200
      6  C31       21.4660   26.2520   13.8270 C.2   1666  INH1666     0.2730
      7  N1        22.6710   25.8020   14.1840 N.am  1666  INH1666    -0.3220
      8  H1        22.7830   24.8110   14.2550 H     1666  INH1666     0.1690
      9  O5        21.2210   27.4390   13.7110 O.2   1666  INH1666    -0.2660
     10  C9        23.7610   26.5730   14.4620 C.ar  1666  INH1666     0.0350
     11  C32       23.8880   26.9920   15.7850 C.ar  1666  INH1666     0.0310
     12  C33       24.9490   27.7960   16.1940 C.ar  1666  INH1666     0.0270
     13  C10       25.8980   28.2210   15.2670 C.ar  1666  INH1666     0.0790
     14  C11       25.7770   27.8170   13.9310 C.ar  1666  INH1666     0.0270
     15  C12       24.7100   27.0030   13.5240 C.ar  1666  INH1666     0.0310
     16  S1        27.1100   29.1360   15.7760 S.O2  1666  INH1666     0.2560
     17  O7        26.9760   30.4580   15.2220 O.2   1666  INH1666    -0.2010
     18  O6        28.3840   28.5950   15.4190 O.2   1666  INH1666    -0.2010
     19  N3        26.9630   29.2530   17.3650 N.3   1666  INH1666    -0.3240
     20  H34       27.2500   28.4950   17.9510 H     1666  INH1666     0.1690
     21  H35       26.5840   30.0840   17.7720 H     1666  INH1666     0.1690
     22  C25       20.0890   24.2500   11.7680 C.3   1666  INH1666     0.0820
     23  C13       20.5970   22.8150   11.6180 C.3   1666  INH1666     0.0320
     24  C26       18.9830   24.6060   10.7880 C.3   1666  INH1666     0.0320
     25  C6        19.7590   26.0910   16.5180 C.ar  1666  INH1666    -0.0230
     26  C28       20.6610   25.5940   17.4630 C.ar  1666  INH1666     0.0120
     27  C29       20.9080   26.2740   18.6560 C.ar  1666  INH1666     0.0010
     28  C7        20.2630   27.4840   18.9010 C.ar  1666  INH1666     0.0000
     29  C30       19.3740   27.9910   17.9560 C.ar  1666  INH1666     0.0010
     30  C8        19.1290   27.3040   16.7650 C.ar  1666  INH1666     0.0120
     31  C14       17.7070   22.8890   13.1660 C.3   1666  INH1666     0.0610
     32  C20       16.2920   23.4090   13.0310 C.3   1666  INH1666     0.0380
     33  C15       15.2960   22.3100   13.4050 C.3   1666  INH1666     0.1200
     34  O4        14.7280   21.7560   12.2290 O.3   1666  INH1666    -0.3950
     35  H20       15.4000   21.2990   11.7360 H     1666  INH1666     0.2100
     36  C19       16.0170   21.2030   14.1530 C.3   1666  INH1666     0.0640
     37  C18       15.5660   19.8350   13.6720 C.3   1666  INH1666     0.1300
     38  C17       15.8620   18.7840   14.7300 C.3   1666  INH1666     0.1410
     39  C16       14.9630   17.6030   14.4990 C.2   1666  INH1666     0.1410
     40  O2        14.4430   16.9690   15.5430 O.2   1666  INH1666    -0.6500
     41  O1        14.7360   17.2130   13.3560 O.3   1666  INH1666    -0.7760
     42  H         15.2630   17.5200   12.6440 H     1666  INH1666     0.1670
     43  O3        16.2550   19.5420   12.4740 O.3   1666  INH1666    -0.3950
     44  H17       15.7150   18.9850   11.9260 H     1666  INH1666     0.2100
     45  C21       17.5360   23.9820   16.0790 C.ar  1666  INH1666    -0.0230
     46  C1        16.3360   24.6470   16.2910 C.ar  1666  INH1666     0.0150
     47  C2        15.4460   24.1690   17.2580 C.ar  1666  INH1666     0.0430
     48  C24       15.7680   23.0480   18.0180 C.ar  1666  INH1666     0.1160
     49  C23       16.9730   22.3870   17.8110 C.ar  1666  INH1666     0.0430
     50  F1        14.9170   22.5880   18.9500 F     1666  INH1666    -0.2060
     51  C22       17.8520   22.8600   16.8430 C.ar  1666  INH1666     0.0150
@<TRIPOS>BOND
     1    24    22    1
     2    23    22    1
     3    35    34    1
     4    22     4    1
     5    44    43    1
     6    34    33    1
     7    43    37    1
     8    42    41    1
     9    32    31    1
    10    32    33    1
    11    31     2    1
    12     4     2   ar
    13     4     3   ar
    14    41    39    1
    15    33    36    1
    16    15    14   ar
    17    15    10   ar
    18    37    36    1
    19    37    38    1
    20     9     6    2
    21     2     1   ar
    22     6     3    1
    23     6     7   am
    24    14    13   ar
    25     3     5   ar
    26     7     8    1
    27     7    10    1
    28    10    11   ar
    29    39    38    1
    30    39    40    2
    31     1     5   ar
    32     1    45    1
    33    17    16    2
    34     5    25    1
    35    13    16    1
    36    13    12   ar
    37    18    16    2
    38    16    19    1
    39    11    12   ar
    40    45    46   ar
    41    45    51   ar
    42    46    47   ar
    43    25    30   ar
    44    25    26   ar
    45    30    29   ar
    46    51    49   ar
    47    47    48   ar
    48    19    21    1
    49    19    20    1
    50    26    27   ar
    51    49    48   ar
    52    29    28   ar
    53    48    50    1
    54    27    28   ar
