@<TRIPOS>MOLECULE
./ligand/1lnm_lig.pdb
 61 65 0 0 0
SMALL
GASTEIGER

@<TRIPOS>ATOM
      1  O1        14.7810  -21.2920   37.1060 O.2   167  INH167     -0.2456
      2  C1        14.0400  -22.2080   37.0350 C.2   167  INH167      0.3323
      3  C2        12.9040  -22.5250   36.1640 C.2   167  INH167      0.0252
      4  O2        14.2300  -23.2610   37.9230 O.3   167  INH167     -0.4571
      5  C3        13.2240  -24.2650   37.6620 C.3   167  INH167      0.1147
      6  C4        12.4200  -23.7400   36.5320 C.2   167  INH167     -0.0222
      7  C5        11.2030  -24.5070   36.1160 C.3   167  INH167     -0.0081
      8  C6        11.5560  -26.0430   36.1120 C.3   167  INH167     -0.0432
      9  C7         9.9670  -24.3170   36.9940 C.3   167  INH167      0.0036
     10  C8         8.7370  -24.1550   36.0510 C.3   167  INH167     -0.0442
     11  C9         7.3760  -24.3510   36.7060 C.3   167  INH167     -0.0488
     12  C10       10.0700  -23.1180   37.9310 C.3   167  INH167     -0.0564
     13  C11        9.7900  -25.7260   37.6820 C.3   167  INH167      0.0751
     14  C12       10.2620  -26.6830   36.6120 C.3   167  INH167     -0.0226
     15  O3        10.8260  -25.8640   38.7020 O.3   167  INH167     -0.3877
     16  C13        8.4190  -25.9590   38.3610 C.3   167  INH167     -0.0083
     17  C14        8.3930  -27.3110   39.0790 C.3   167  INH167     -0.0470
     18  C15        7.2220  -25.7460   37.3730 C.3   167  INH167     -0.0299
     19  C16        5.8660  -25.9760   38.1060 C.3   167  INH167     -0.0259
     20  C17        4.7060  -25.8560   37.0780 C.3   167  INH167     -0.0448
     21  C18        5.5120  -24.8810   39.1660 C.3   167  INH167     -0.0590
     22  C19        5.8640  -27.3860   38.6570 C.3   167  INH167     -0.0330
     23  C20        7.0040  -27.6710   39.6460 C.3   167  INH167     -0.0493
     24  C21        5.9350  -28.4260   37.5280 C.3   167  INH167     -0.0235
     25  C22        4.8350  -28.2580   36.4950 C.3   167  INH167      0.0555
     26  C23        4.8600  -26.8500   35.9340 C.3   167  INH167     -0.0263
     27  O4         3.5550  -28.4830   37.1580 O.3   167  INH167     -0.3918
     28  H1        12.5160  -21.8970   35.3630 H     167  INH167      0.0689
     29  H2        12.5900  -24.4130   38.5490 H     167  INH167      0.0746
     30  H3        13.6960  -25.2190   37.3860 H     167  INH167      0.0746
     31  H4        10.9420  -24.1910   35.0950 H     167  INH167      0.0353
     32  H5        12.3940  -26.2600   36.7910 H     167  INH167      0.0272
     33  H6        11.8050  -26.3910   35.0990 H     167  INH167      0.0272
     34  H7         8.8320  -24.8930   35.2410 H     167  INH167      0.0272
     35  H8         8.7660  -23.1400   35.6280 H     167  INH167      0.0272
     36  H9         6.5970  -24.2420   35.9370 H     167  INH167      0.0268
     37  H10        7.2420  -23.5770   37.4760 H     167  INH167      0.0268
     38  H11       10.1900  -22.1990   37.3390 H     167  INH167      0.0236
     39  H12       10.9390  -23.2440   38.5930 H     167  INH167      0.0236
     40  H13        9.1550  -23.0470   38.5370 H     167  INH167      0.0236
     41  H14       10.4530  -27.6810   37.0330 H     167  INH167      0.0293
     42  H15        9.5230  -26.7630   35.8010 H     167  INH167      0.0293
     43  H16       10.6260  -25.2950   39.4360 H     167  INH167      0.2102
     44  H17        8.3150  -25.1890   39.1400 H     167  INH167      0.0331
     45  H18        9.1130  -27.2790   39.9100 H     167  INH167      0.0269
     46  H19        8.6920  -28.0920   38.3650 H     167  INH167      0.0269
     47  H20        7.2910  -26.5020   36.5770 H     167  INH167      0.0310
     48  H21        4.7000  -24.8360   36.6650 H     167  INH167      0.0271
     49  H22        3.7530  -26.0490   37.5920 H     167  INH167      0.0271
     50  H23        6.2780  -24.8740   39.9560 H     167  INH167      0.0235
     51  H24        4.5300  -25.1030   39.6090 H     167  INH167      0.0235
     52  H25        5.4800  -23.8960   38.6780 H     167  INH167      0.0235
     53  H26        4.9130  -27.5230   39.1930 H     167  INH167      0.0307
     54  H27        6.8330  -27.0810   40.5580 H     167  INH167      0.0268
     55  H28        6.9930  -28.7420   39.8950 H     167  INH167      0.0268
     56  H29        5.8500  -29.4300   37.9700 H     167  INH167      0.0293
     57  H30        6.9070  -28.3290   37.0230 H     167  INH167      0.0293
     58  H31        4.9720  -28.9840   35.6800 H     167  INH167      0.0593
     59  H32        5.8170  -26.6750   35.4200 H     167  INH167      0.0290
     60  H33        4.0320  -26.7230   35.2210 H     167  INH167      0.0290
     61  H34        3.5330  -29.3640   37.5120 H     167  INH167      0.2098
@<TRIPOS>BOND
     1     1     2    2
     2     2     4    1
     3     2     3    1
     4     3    28    1
     5     3     6    2
     6     4     5    1
     7     5     6    1
     8     5    30    1
     9     5    29    1
    10     6     7    1
    11     7    31    1
    12     7     9    1
    13     7     8    1
    14     8    33    1
    15     8    32    1
    16     8    14    1
    17     9    13    1
    18     9    12    1
    19     9    10    1
    20    10    35    1
    21    10    34    1
    22    10    11    1
    23    11    37    1
    24    11    36    1
    25    11    18    1
    26    12    40    1
    27    12    39    1
    28    12    38    1
    29    13    14    1
    30    13    16    1
    31    13    15    1
    32    14    42    1
    33    14    41    1
    34    15    43    1
    35    16    18    1
    36    16    44    1
    37    16    17    1
    38    17    46    1
    39    17    45    1
    40    17    23    1
    41    18    47    1
    42    18    19    1
    43    19    22    1
    44    19    21    1
    45    19    20    1
    46    20    49    1
    47    20    48    1
    48    20    26    1
    49    21    52    1
    50    21    51    1
    51    21    50    1
    52    22    23    1
    53    22    53    1
    54    22    24    1
    55    23    55    1
    56    23    54    1
    57    24    25    1
    58    24    57    1
    59    24    56    1
    60    25    26    1
    61    25    58    1
    62    25    27    1
    63    26    60    1
    64    26    59    1
    65    27    61    1
