@<TRIPOS>MOLECULE
/tmp/ewbell/vina_1lnm_1lnm_lig/vina/vina2.pdbqt
 29 33 0 0 0
SMALL
GASTEIGER

@<TRIPOS>ATOM
      1  C5         6.5910  -26.1150   38.9540 C.3   167  INH167      0.0280
      2  C6         7.5280  -27.2570   39.5040 C.3   167  INH167      0.0130
      3  C7         7.3060  -25.4560   37.7750 C.3   167  INH167     -0.0050
      4  C8         7.9170  -24.1160   38.2820 C.3   167  INH167      0.0130
      5  C9         8.9910  -23.5050   37.3910 C.3   167  INH167      0.0070
      6  C10        6.3910  -25.1970   36.5820 C.3   167  INH167      0.0190
      7  C11        8.5350  -26.4110   37.5150 C.3   167  INH167      0.0700
      8  C12        8.8850  -26.8920   38.9040 C.3   167  INH167      0.0400
      9  C13        9.6450  -25.8240   36.6110 C.3   167  INH167      0.0250
     10  C14       10.7350  -26.8650   36.3450 C.3   167  INH167      0.0080
     11  C15       10.1930  -24.4600   37.1520 C.3   167  INH167      0.0010
     12  C16       11.2950  -23.9020   36.2010 C.3   167  INH167     -0.0360
     13  C17       11.8880  -22.6040   36.8160 C.3   167  INH167      0.0120
     14  C18       10.7630  -23.4220   34.8100 C.3   167  INH167      0.0160
     15  C19       12.4020  -24.9300   36.1120 C.3   167  INH167     -0.0040
     16  C20       11.9450  -26.2950   35.5770 C.3   167  INH167      0.0060
     17  C21       13.0710  -25.1490   37.4780 C.3   167  INH167      0.0370
     18  C22       13.5880  -23.8640   38.0990 C.3   167  INH167      0.1180
     19  C23       12.4670  -22.8490   38.2040 C.3   167  INH167      0.0320
     20  C4         5.2480  -26.7050   38.6530 C.2   167  INH167     -0.0450
     21  C2         4.0180  -26.1460   38.5010 C.2   167  INH167      0.0870
     22  C1         3.1020  -27.1920   38.0350 C.2   167  INH167      0.2830
     23  O1         1.9520  -27.2080   37.7720 O.2   167  INH167     -0.2600
     24  O2         3.8050  -28.3860   37.9220 O.3   167  INH167     -0.3140
     25  C3         5.1810  -28.1420   38.2920 C.3   167  INH167      0.2130
     26  O3         8.0350  -27.6280   36.8810 O.3   167  INH167     -0.3890
     27  H16        8.7200  -28.0100   36.3440 H     167  INH167      0.2100
     28  O4        14.6320  -23.3310   37.2300 O.3   167  INH167     -0.3960
     29  H34       14.3300  -23.3420   36.3300 H     167  INH167      0.2100
@<TRIPOS>BOND
     1    14    12    1
     2    16    15    1
     3    16    10    1
     4    15    12    1
     5    15    17    1
     6    12    13    1
     7    12    11    1
     8    29    28    1
     9    27    26    1
    10    10     9    1
    11     6     3    1
    12     9    11    1
    13     9     7    1
    14    13    19    1
    15    26     7    1
    16    11     5    1
    17    28    18    1
    18     5     4    1
    19    17    18    1
    20     7     3    1
    21     7     8    1
    22    23    22    2
    23     3     4    1
    24     3     1    1
    25    24    22    1
    26    24    25    1
    27    22    21    1
    28    18    19    1
    29    25    20    1
    30    21    20    2
    31    20     1    1
    32     8     2    1
    33     1     2    1
