@<TRIPOS>MOLECULE
/tmp/ewbell/vina_1lnm_1lnm_lig/vina/vina4.pdbqt
 29 33 0 0 0
SMALL
GASTEIGER

@<TRIPOS>ATOM
      1  C5         5.1890  -26.8270   35.8890 C.3   167  INH167      0.0280
      2  C6         4.9670  -25.3410   35.4150 C.3   167  INH167      0.0130
      3  C7         6.3980  -26.8410   36.8240 C.3   167  INH167     -0.0050
      4  C8         7.6170  -27.3750   36.0120 C.3   167  INH167      0.0130
      5  C9         8.9850  -27.0980   36.6220 C.3   167  INH167      0.0070
      6  C10        6.1870  -27.6910   38.0720 C.3   167  INH167      0.0190
      7  C11        6.6890  -25.3090   37.0640 C.3   167  INH167      0.0700
      8  C12        6.3070  -24.6840   35.7420 C.3   167  INH167      0.0400
      9  C13        8.0690  -24.9910   37.6860 C.3   167  INH167      0.0250
     10  C14        8.2040  -23.4920   37.9680 C.3   167  INH167      0.0080
     11  C15        9.2510  -25.5840   36.8470 C.3   167  INH167      0.0010
     12  C16       10.6160  -25.2510   37.5210 C.3   167  INH167     -0.0360
     13  C17       11.7700  -25.7650   36.6140 C.3   167  INH167      0.0120
     14  C18       10.8690  -26.0010   38.8700 C.3   167  INH167      0.0160
     15  C19       10.7340  -23.7460   37.6250 C.3   167  INH167     -0.0040
     16  C20        9.6150  -23.0880   38.4460 C.3   167  INH167      0.0060
     17  C21       10.7590  -23.0910   36.2350 C.3   167  INH167      0.0370
     18  C22       11.8480  -23.6470   35.3350 C.3   167  INH167      0.1180
     19  C23       11.7090  -25.1520   35.2200 C.3   167  INH167      0.0320
     20  C4         3.9090  -27.3360   36.4760 C.2   167  INH167     -0.0450
     21  C2         3.1880  -26.9560   37.5640 C.2   167  INH167      0.0870
     22  C1         1.9230  -27.6980   37.5480 C.2   167  INH167      0.2830
     23  O1         0.9860  -27.7240   38.2660 O.2   167  INH167     -0.2600
     24  O2         1.9060  -28.5320   36.4370 O.3   167  INH167     -0.3140
     25  C3         3.1390  -28.3430   35.7060 C.3   167  INH167      0.2130
     26  O3         5.6610  -24.7900   37.9620 O.3   167  INH167     -0.3890
     27  H16        6.0710  -24.3010   38.6650 H     167  INH167      0.2100
     28  O4        13.1380  -23.3350   35.9420 O.3   167  INH167     -0.3960
     29  H34       13.8050  -23.3010   35.2660 H     167  INH167      0.2100
@<TRIPOS>BOND
     1    19    18    1
     2    19    13    1
     3    29    28    1
     4    18    28    1
     5    18    17    1
     6     2     8    1
     7     2     1    1
     8    25    24    1
     9    25    20    1
    10     8     7    1
    11     1    20    1
    12     1     3    1
    13     4     5    1
    14     4     3    1
    15    17    15    1
    16    24    22    1
    17    20    21    2
    18    13    12    1
    19     5    11    1
    20     3     7    1
    21     3     6    1
    22    11    12    1
    23    11     9    1
    24     7     9    1
    25     7    26    1
    26    12    15    1
    27    12    14    1
    28    22    21    1
    29    22    23    2
    30    15    16    1
    31     9    10    1
    32    26    27    1
    33    10    16    1
