@<TRIPOS>MOLECULE
/tmp/ewbell/vina_1lnm_1lnm_lig/vina/vina5.pdbqt
 29 33 0 0 0
SMALL
GASTEIGER

@<TRIPOS>ATOM
      1  C5        11.1840  -22.9820   36.9890 C.3   167  INH167      0.0280
      2  C6        10.8930  -23.0400   35.4410 C.3   167  INH167      0.0130
      3  C7        10.4920  -24.1810   37.6370 C.3   167  INH167     -0.0050
      4  C8         9.1800  -23.6670   38.3030 C.3   167  INH167      0.0130
      5  C9         8.1570  -24.7400   38.6530 C.3   167  INH167      0.0070
      6  C10       11.3590  -24.8940   38.6690 C.3   167  INH167      0.0190
      7  C11       10.0290  -25.0440   36.4000 C.3   167  INH167      0.0700
      8  C12        9.7030  -23.9950   35.3620 C.3   167  INH167      0.0400
      9  C13        8.9900  -26.1470   36.7200 C.3   167  INH167      0.0250
     10  C14        8.6890  -26.9840   35.4740 C.3   167  INH167      0.0080
     11  C15        7.7120  -25.5740   37.4210 C.3   167  INH167      0.0010
     12  C16        6.7060  -26.7230   37.7350 C.3   167  INH167     -0.0360
     13  C17        5.4090  -26.1110   38.3370 C.3   167  INH167      0.0120
     14  C18        7.1820  -27.7090   38.8530 C.3   167  INH167      0.0160
     15  C19        6.3460  -27.4020   36.4310 C.3   167  INH167     -0.0040
     16  C20        7.5480  -28.0010   35.6870 C.3   167  INH167      0.0060
     17  C21        5.6250  -26.4340   35.4800 C.3   167  INH167      0.0370
     18  C22        4.3960  -25.7940   36.1010 C.3   167  INH167      0.1180
     19  C23        4.7720  -25.0980   37.3950 C.3   167  INH167      0.0320
     20  C4        12.6650  -22.8990   37.1920 C.2   167  INH167     -0.0450
     21  C2        13.6950  -23.6510   36.7230 C.2   167  INH167      0.0870
     22  C1        14.9470  -22.9910   37.1080 C.2   167  INH167      0.2830
     23  O1        16.0870  -23.2510   36.9460 O.2   167  INH167     -0.2600
     24  O2        14.6450  -21.8390   37.8230 O.3   167  INH167     -0.3140
     25  C3        13.2070  -21.7150   37.9040 C.3   167  INH167      0.2130
     26  O3        11.2090  -25.6900   35.8320 O.3   167  INH167     -0.3890
     27  H16       11.8850  -25.7560   36.4960 H     167  INH167      0.2100
     28  O4         3.4340  -26.8510   36.3920 O.3   167  INH167     -0.3960
     29  H34        3.8560  -27.5310   36.9040 H     167  INH167      0.2100
@<TRIPOS>BOND
     1     8     2    1
     2     8     7    1
     3     2     1    1
     4    10    16    1
     5    10     9    1
     6    17    18    1
     7    17    15    1
     8    16    15    1
     9    26     7    1
    10    26    27    1
    11    18    28    1
    12    18    19    1
    13    28    29    1
    14     7     9    1
    15     7     3    1
    16    15    12    1
    17     9    11    1
    18    21    22    1
    19    21    20    2
    20    23    22    2
    21     1    20    1
    22     1     3    1
    23    22    24    1
    24    20    25    1
    25    19    13    1
    26    11    12    1
    27    11     5    1
    28     3     4    1
    29     3     6    1
    30    12    13    1
    31    12    14    1
    32    24    25    1
    33     4     5    1
