@<TRIPOS>MOLECULE
/tmp/ewbell/vina_1lnm_1lnm_lig/vina/vina1.pdbqt
 29 33 0 0 0
SMALL
GASTEIGER

@<TRIPOS>ATOM
      1  C5        10.9850  -24.5050   35.8980 C.3   167  INH167      0.0280
      2  C6        11.3180  -26.0420   35.7980 C.3   167  INH167      0.0130
      3  C7         9.8750  -24.3360   36.9340 C.3   167  INH167     -0.0050
      4  C8         8.5350  -24.1340   36.1640 C.3   167  INH167      0.0130
      5  C9         7.2680  -24.3430   36.9820 C.3   167  INH167      0.0070
      6  C10       10.1110  -23.1710   37.8890 C.3   167  INH167      0.0190
      7  C11        9.7720  -25.7670   37.5920 C.3   167  INH167      0.0700
      8  C12       10.0920  -26.6900   36.4400 C.3   167  INH167      0.0400
      9  C13        8.4980  -26.0130   38.4350 C.3   167  INH167      0.0250
     10  C14        8.5500  -27.3890   39.1050 C.3   167  INH167      0.0080
     11  C15        7.1860  -25.7590   37.6170 C.3   167  INH167      0.0010
     12  C16        5.9330  -26.0050   38.5110 C.3   167  INH167     -0.0360
     13  C17        4.6520  -25.8420   37.6460 C.3   167  INH167      0.0120
     14  C18        5.7310  -24.9440   39.6430 C.3   167  INH167      0.0160
     15  C19        5.9870  -27.4320   39.0110 C.3   167  INH167     -0.0040
     16  C20        7.2410  -27.7590   39.8350 C.3   167  INH167      0.0060
     17  C21        5.9000  -28.4340   37.8490 C.3   167  INH167      0.0370
     18  C22        4.6780  -28.2230   36.9730 C.3   167  INH167      0.1180
     19  C23        4.6460  -26.7970   36.4600 C.3   167  INH167      0.0320
     20  C4        12.2540  -23.7610   36.1780 C.2   167  INH167     -0.0450
     21  C2        12.6440  -22.4870   35.9100 C.2   167  INH167      0.0870
     22  C1        13.9290  -22.2580   36.5800 C.2   167  INH167      0.2830
     23  O1        14.6610  -21.3350   36.6410 O.2   167  INH167     -0.2600
     24  O2        14.3020  -23.4210   37.2430 O.3   167  INH167     -0.3140
     25  C3        13.2720  -24.4150   37.0360 C.3   167  INH167      0.2130
     26  O3        10.9300  -25.9460   38.4650 O.3   167  INH167     -0.3890
     27  H16       11.1420  -25.1210   38.8840 H     167  INH167      0.2100
     28  O4         3.4920  -28.4620   37.7880 O.3   167  INH167     -0.3960
     29  H34        3.5280  -27.9190   38.5660 H     167  INH167      0.2100
@<TRIPOS>BOND
     1     2     1    1
     2     2     8    1
     3     1    20    1
     4     1     3    1
     5    21    20    2
     6    21    22    1
     7     4     3    1
     8     4     5    1
     9    20    25    1
    10     8     7    1
    11    19    18    1
    12    19    13    1
    13    22    23    2
    14    22    24    1
    15     3     7    1
    16     3     6    1
    17    18    28    1
    18    18    17    1
    19     5    11    1
    20    25    24    1
    21     7     9    1
    22     7    26    1
    23    11     9    1
    24    11    12    1
    25    13    12    1
    26    28    29    1
    27    17    15    1
    28     9    10    1
    29    26    27    1
    30    12    15    1
    31    12    14    1
    32    15    16    1
    33    10    16    1
