@<TRIPOS>MOLECULE
/tmp/ewbell/vina_1lnm_1lnm_lig/vina/vina3.pdbqt
 29 33 0 0 0
SMALL
GASTEIGER

@<TRIPOS>ATOM
      1  C5        11.2420  -25.4090   37.0670 C.3   167  INH167      0.0280
      2  C6        10.9790  -25.5300   38.6160 C.3   167  INH167      0.0130
      3  C7         9.9000  -25.1460   36.3860 C.3   167  INH167     -0.0050
      4  C8         9.4150  -26.4880   35.7610 C.3   167  INH167      0.0130
      5  C9         7.9390  -26.5440   35.3880 C.3   167  INH167      0.0070
      6  C10        9.9680  -24.0620   35.3150 C.3   167  INH167      0.0190
      7  C11        8.9270  -24.8680   37.5980 C.3   167  INH167      0.0700
      8  C12        9.4710  -25.7720   38.6790 C.3   167  INH167      0.0400
      9  C13        7.4190  -24.9140   37.2540 C.3   167  INH167      0.0250
     10  C14        6.5740  -24.5330   38.4730 C.3   167  INH167      0.0080
     11  C15        7.0000  -26.2720   36.5950 C.3   167  INH167      0.0010
     12  C16        5.4790  -26.2630   36.2540 C.3   167  INH167     -0.0360
     13  C17        5.0760  -27.6570   35.6960 C.3   167  INH167      0.0120
     14  C18        5.0840  -25.2910   35.0940 C.3   167  INH167      0.0160
     15  C19        4.7120  -26.0290   37.5380 C.3   167  INH167     -0.0040
     16  C20        5.0590  -24.7080   38.2400 C.3   167  INH167      0.0060
     17  C21        4.9320  -27.1770   38.5360 C.3   167  INH167      0.0370
     18  C22        4.5960  -28.5400   37.9580 C.3   167  INH167      0.1180
     19  C23        5.3860  -28.7730   36.6850 C.3   167  INH167      0.0320
     20  C4        12.2990  -24.3720   36.8430 C.2   167  INH167     -0.0450
     21  C2        12.2670  -23.1480   36.2530 C.2   167  INH167      0.0870
     22  C1        13.5630  -22.5020   36.4850 C.2   167  INH167      0.2830
     23  O1        14.0200  -21.4590   36.1740 O.2   167  INH167     -0.2600
     24  O2        14.3710  -23.3660   37.2150 O.3   167  INH167     -0.3140
     25  C3        13.6210  -24.5720   37.4850 C.3   167  INH167      0.2130
     26  O3         9.2280  -23.5390   38.1230 O.3   167  INH167     -0.3890
     27  H16        9.1480  -23.5460   39.0690 H     167  INH167      0.2100
     28  O4         3.1720  -28.5590   37.6440 O.3   167  INH167     -0.3960
     29  H34        3.0220  -29.1170   36.8900 H     167  INH167      0.2100
@<TRIPOS>BOND
     1    14    12    1
     2     6     3    1
     3     5     4    1
     4     5    11    1
     5    13    12    1
     6    13    19    1
     7     4     3    1
     8    23    22    2
     9    21    22    1
    10    21    20    2
    11    12    11    1
    12    12    15    1
    13     3     1    1
    14     3     7    1
    15    22    24    1
    16    11     9    1
    17    19    18    1
    18    20     1    1
    19    20    25    1
    20    29    28    1
    21     1     2    1
    22    24    25    1
    23     9     7    1
    24     9    10    1
    25    15    16    1
    26    15    17    1
    27     7    26    1
    28     7     8    1
    29    28    18    1
    30    18    17    1
    31    26    27    1
    32    16    10    1
    33     2     8    1
