@<TRIPOS>MOLECULE
./ligand/2hj4_lig.pdb
 20 20 0 0 0
SMALL
GASTEIGER

@<TRIPOS>ATOM
      1  C1        23.1590   17.2320   27.8430 C.ar  955  INH955      0.1262
      2  C2        23.1590   17.2890   29.2170 C.ar  955  INH955     -0.0310
      3  C3        22.5560   15.9930   30.0170 C.ar  955  INH955     -0.0514
      4  C4        22.0930   14.9220   29.2740 C.ar  955  INH955     -0.0029
      5  C5        22.1270   14.9870   27.8600 C.ar  955  INH955     -0.0514
      6  C6        22.6490   16.0970   27.1630 C.ar  955  INH955     -0.0310
      7  N1        20.0630   13.7590   30.3510 N.4   955  INH955      0.2218
      8  C7        21.4910   13.7370   29.9720 C.3   955  INH955     -0.0094
      9  N2        23.6300   18.3080   27.1660 N.pl3 955  INH955      0.0564
     10  O1        24.0060   19.2560   27.8080 O.2   955  INH955     -0.1261
     11  O2        23.6740   18.2840   25.9630 O.2   955  INH955     -0.1261
     12  H1        23.5410   18.1540   29.7470 H     955  INH955      0.0640
     13  H2        22.5210   15.9750   31.1000 H     955  INH955      0.0623
     14  H3        21.7370   14.1510   27.2910 H     955  INH955      0.0623
     15  H4        22.6600   16.0820   26.0790 H     955  INH955      0.0640
     16  H5        19.8230   12.8930   30.8070 H     955  INH955      0.1997
     17  H6        19.4980   13.8720   29.5240 H     955  INH955      0.1997
     18  H7        19.8940   14.5280   30.9810 H     955  INH955      0.1997
     19  H8        22.0650   13.5870   30.8980 H     955  INH955      0.0866
     20  H9        21.6320   12.8710   29.3090 H     955  INH955      0.0866
@<TRIPOS>BOND
     1    11     9    2
     2    15     6    1
     3     6     1   ar
     4     6     5   ar
     5     9    10    2
     6     9     1    1
     7    14     5    1
     8     1     2   ar
     9     5     4   ar
    10     2    12    1
    11     2     3   ar
    12     4     8    1
    13     4     3   ar
    14    20     8    1
    15    17     7    1
    16     8     7    1
    17     8    19    1
    18     3    13    1
    19     7    16    1
    20     7    18    1
