@<TRIPOS>MOLECULE
/tmp/ewbell/vina_2hj4_2hj4_lig/vina/vina4.pdbqt
 14 14 0 0 0
SMALL
GASTEIGER

@<TRIPOS>ATOM
      1  C1        31.8000    4.8620   43.0970 C.ar  955  INH955      0.1020
      2  C2        32.9410    5.3460   43.6930 C.ar  955  INH955      0.0370
      3  C3        34.2310    5.6170   42.7200 C.ar  955  INH955      0.0110
      4  C4        34.0990    5.3540   41.3690 C.ar  955  INH955     -0.0330
      5  C5        32.8770    4.8380   40.8740 C.ar  955  INH955      0.0110
      6  C6        31.7600    4.6070   41.7030 C.ar  955  INH955      0.0370
      7  C7        35.2750    5.5470   40.4550 C.3   955  INH955      0.2680
      8  N1        36.6460    5.3830   40.9820 N.4   955  INH955     -0.0750
      9  H6        36.6710    4.5950   41.6110 H     955  INH955      0.2740
     10  H5        37.2830    5.2250   40.2180 H     955  INH955      0.2740
     11  H7        36.9170    6.2170   41.4790 H     955  INH955      0.2740
     12  N2        30.7320    4.6070   43.8930 N.pl3 955  INH955     -0.1160
     13  O2        30.5370    5.2870   44.8670 O.2   955  INH955     -0.5320
     14  O1        30.0160    3.6840   43.5950 O.2   955  INH955     -0.5320
@<TRIPOS>BOND
     1    10     8    1
     2     7     8    1
     3     7     4    1
     4     5     4   ar
     5     5     6   ar
     6     8    11    1
     7     8     9    1
     8     4     3   ar
     9     6     1   ar
    10     3     2   ar
    11     1     2   ar
    12     1    12    1
    13    14    12    2
    14    12    13    2
