@<TRIPOS>MOLECULE
/tmp/ewbell/vina_2hj4_2hj4_lig/vina/vina5.pdbqt
 14 14 0 0 0
SMALL
GASTEIGER

@<TRIPOS>ATOM
      1  C1        26.3490    9.8820   23.6550 C.ar  955  INH955      0.1020
      2  C2        26.9370   10.9040   24.3620 C.ar  955  INH955      0.0370
      3  C3        26.0990   11.5080   25.6340 C.ar  955  INH955      0.0110
      4  C4        24.8640   10.9570   25.9260 C.ar  955  INH955     -0.0330
      5  C5        24.3530    9.9180   25.1110 C.ar  955  INH955      0.0110
      6  C6        25.0700    9.3880   24.0170 C.ar  955  INH955      0.0370
      7  C7        24.0480   11.5170   27.0550 C.3   955  INH955      0.2680
      8  N1        22.6520   11.9360   26.8110 N.4   955  INH955     -0.0750
      9  H6        22.4950   12.0180   25.8180 H     955  INH955      0.2740
     10  H5        22.0230   11.2510   27.1960 H     955  INH955      0.2740
     11  H7        22.4880   12.8290   27.2510 H     955  INH955      0.2740
     12  N2        27.0180    9.3890   22.5830 N.pl3 955  INH955     -0.1160
     13  O2        28.0070    9.9510   22.1870 O.2   955  INH955     -0.5320
     14  O1        26.5800    8.3990   22.0530 O.2   955  INH955     -0.5320
@<TRIPOS>BOND
     1    14    12    2
     2    13    12    2
     3    12     1    1
     4     1     6   ar
     5     1     2   ar
     6     6     5   ar
     7     2     3   ar
     8     5     4   ar
     9     3     4   ar
    10     9     8    1
    11     4     7    1
    12     8     7    1
    13     8    10    1
    14     8    11    1
