@<TRIPOS>MOLECULE
/tmp/ewbell/vina_2hj4_2hj4_lig/vina/vina2.pdbqt
 14 14 0 0 0
SMALL
GASTEIGER

@<TRIPOS>ATOM
      1  C1        22.0490   15.6100   30.0750 C.ar  955  INH955      0.1020
      2  C2        22.9770   16.6150   30.2160 C.ar  955  INH955      0.0370
      3  C3        23.6540   17.2030   28.8450 C.ar  955  INH955      0.0110
      4  C4        23.2520   16.6670   27.6350 C.ar  955  INH955     -0.0330
      5  C5        22.3000   15.6200   27.6170 C.ar  955  INH955      0.0110
      6  C6        21.7090   15.1110   28.7920 C.ar  955  INH955      0.0370
      7  C7        23.8850   17.1490   26.3610 C.3   955  INH955      0.2680
      8  N1        25.2400   16.6860   25.9960 N.4   955  INH955     -0.0750
      9  H6        25.1990   16.1870   25.1210 H     955  INH955      0.2740
     10  H5        25.8530   17.4800   25.9030 H     955  INH955      0.2740
     11  H7        25.5910   16.0720   26.7160 H     955  INH955      0.2740
     12  N2        21.4990   15.0950   31.2020 N.pl3 955  INH955     -0.1160
     13  O2        21.8200   13.9950   31.5730 O.2   955  INH955     -0.5320
     14  O1        20.6860   15.7630   31.7880 O.2   955  INH955     -0.5320
@<TRIPOS>BOND
     1     9     8    1
     2    10     8    1
     3     8     7    1
     4     8    11    1
     5     7     4    1
     6     5     4   ar
     7     5     6   ar
     8     4     3   ar
     9     6     1   ar
    10     3     2   ar
    11     1     2   ar
    12     1    12    1
    13    12    13    2
    14    12    14    2
