@<TRIPOS>MOLECULE
/tmp/ewbell/vina_2hj4_2hj4_lig/vina/vina1.pdbqt
 14 14 0 0 0
SMALL
GASTEIGER

@<TRIPOS>ATOM
      1  C1        23.2380   17.3410   27.8970 C.ar  955  INH955      0.1020
      2  C2        23.5450   17.4050   29.2360 C.ar  955  INH955      0.0370
      3  C3        22.9110   16.2440   30.2020 C.ar  955  INH955      0.0110
      4  C4        22.1180   15.2700   29.6220 C.ar  955  INH955     -0.0330
      5  C5        21.8570   15.3200   28.2320 C.ar  955  INH955      0.0110
      6  C6        22.4030   16.3130   27.3910 C.ar  955  INH955      0.0370
      7  C7        21.4830   14.2180   30.4840 C.3   955  INH955      0.2680
      8  N1        20.2630   13.5270   30.0160 N.4   955  INH955     -0.0750
      9  H6        19.9110   12.9340   30.7510 H     955  INH955      0.2740
     10  H5        19.5640   14.2090   29.7690 H     955  INH955      0.2740
     11  H7        20.4840   12.9650   29.2080 H     955  INH955      0.2740
     12  N2        23.7340   18.3100   27.0880 N.pl3 955  INH955     -0.1160
     13  O2        23.4940   19.4660   27.3260 O.2   955  INH955     -0.5320
     14  O1        24.3920   17.9680   26.1390 O.2   955  INH955     -0.5320
@<TRIPOS>BOND
     1    14    12    2
     2    12    13    2
     3    12     1    1
     4     6     1   ar
     5     6     5   ar
     6     1     2   ar
     7     5     4   ar
     8    11     8    1
     9     2     3   ar
    10     4     3   ar
    11     4     7    1
    12    10     8    1
    13     8     7    1
    14     8     9    1
