@<TRIPOS>MOLECULE
/tmp/ewbell/vina_2hj4_2hj4_lig/vina/vina3.pdbqt
 14 14 0 0 0
SMALL
GASTEIGER

@<TRIPOS>ATOM
      1  C1        25.0500    9.3710   24.1080 C.ar  955  INH955      0.1020
      2  C2        25.8860   10.4630   24.1390 C.ar  955  INH955      0.0370
      3  C3        27.2020   10.4210   23.1640 C.ar  955  INH955      0.0110
      4  C4        27.3930    9.3060   22.3680 C.ar  955  INH955     -0.0330
      5  C5        26.4710    8.2340   22.4380 C.ar  955  INH955      0.0110
      6  C6        25.3330    8.2630   23.2700 C.ar  955  INH955      0.0370
      7  C7        28.6120    9.2130   21.4970 C.3   955  INH955      0.2680
      8  N1        29.7420    8.3550   21.9090 N.4   955  INH955     -0.0750
      9  H6        29.6230    8.0830   22.8730 H     955  INH955      0.2740
     10  H5        29.7690    7.5330   21.3280 H     955  INH955      0.2740
     11  H7        30.6060    8.8650   21.8090 H     955  INH955      0.2740
     12  N2        23.9710    9.3790   24.9290 N.pl3 955  INH955     -0.1160
     13  O2        23.7720   10.3280   25.6440 O.2   955  INH955     -0.5320
     14  O1        23.2520    8.4130   24.9210 O.2   955  INH955     -0.5320
@<TRIPOS>BOND
     1    10     8    1
     2     7     8    1
     3     7     4    1
     4    11     8    1
     5     8     9    1
     6     4     5   ar
     7     4     3   ar
     8     5     6   ar
     9     3     2   ar
    10     6     1   ar
    11     1     2   ar
    12     1    12    1
    13    14    12    2
    14    12    13    2
