@<TRIPOS>MOLECULE
./ligand/1x9d_lig.pdb
 48 49 0 0 0
SMALL
GASTEIGER

@<TRIPOS>ATOM
      1  O1        -0.0040   -3.4490   -0.6700 O.3   457  INH457     -0.3857
      2  C1         1.4250   -3.4720   -0.7620 C.3   457  INH457      0.1189
      3  C2         1.9150   -2.0550   -0.6930 C.3   457  INH457      0.1126
      4  O2         1.2670   -1.3420    0.3980 O.3   457  INH457     -0.3865
      5  C3         3.4070   -1.9860   -0.4680 C.3   457  INH457      0.1118
      6  O3         4.0930   -2.5180   -1.6270 O.3   457  INH457     -0.3865
      7  C4         3.7570   -2.6860    0.8380 C.3   457  INH457      0.1115
      8  C5         3.8430   -1.6440    1.9530 C.3   457  INH457      0.0730
      9  O4         4.0940   -2.2420    3.2060 O.3   457  INH457     -0.3924
     10  O5         2.7790   -3.6500    1.2770 O.3   457  INH457     -0.3553
     11  C6         1.9670   -4.3660    0.3140 C.3   457  INH457      0.1335
     12  S1         2.7590   -5.8030   -0.4960 S.3   457  INH457     -0.1160
     13  C7         2.9180   -7.0770    0.7840 C.3   457  INH457      0.0869
     14  C8         3.9930   -8.0690    0.4110 C.3   457  INH457      0.1735
     15  O6         4.2090   -8.8930    1.5570 O.3   457  INH457     -0.3533
     16  C9         5.3770   -9.7280    1.4660 C.3   457  INH457      0.0395
     17  O7         3.5920   -8.8310   -0.7200 O.3   457  INH457     -0.3420
     18  C10        1.6110   -7.8440    1.0500 C.3   457  INH457      0.1000
     19  O8         0.5890   -6.8980    1.3390 O.3   457  INH457     -0.3879
     20  C11        1.2250   -8.7560   -0.1260 C.3   457  INH457      0.1105
     21  O9         0.1580   -9.6460    0.2780 O.3   457  INH457     -0.3865
     22  C12        2.3930   -9.6210   -0.5540 C.3   457  INH457      0.1129
     23  C13        2.0710  -10.2620   -1.8850 C.3   457  INH457      0.0730
     24  O10        3.0330  -11.2850   -2.1610 O.3   457  INH457     -0.3924
     25  H1        -0.3560   -2.8850   -1.3480 H     457  INH457      0.2100
     26  H2         1.7210   -3.8920   -1.7350 H     457  INH457      0.0655
     27  H3         1.6740   -1.5580   -1.6440 H     457  INH457      0.0647
     28  H4         1.5880   -0.4480    0.4270 H     457  INH457      0.2100
     29  H5         3.6960   -0.9300   -0.3660 H     457  INH457      0.0647
     30  H6         5.0320   -2.4750   -1.4870 H     457  INH457      0.2100
     31  H7         4.7270   -3.1900    0.7140 H     457  INH457      0.0646
     32  H8         2.8910   -1.0960    2.0040 H     457  INH457      0.0584
     33  H9         4.6580   -0.9420    1.7230 H     457  INH457      0.0584
     34  H10        4.1410   -1.5690    3.8740 H     457  INH457      0.2095
     35  H11        1.1080   -4.7570    0.8790 H     457  INH457      0.0740
     36  H12        3.2130   -6.5760    1.7180 H     457  INH457      0.0489
     37  H13        4.9220   -7.5340    0.1650 H     457  INH457      0.0922
     38  H14        5.4710  -10.3280    2.3830 H     457  INH457      0.0525
     39  H15        6.2700   -9.0970    1.3470 H     457  INH457      0.0525
     40  H16        5.2820  -10.3970    0.5980 H     457  INH457      0.0525
     41  H17        1.7560   -8.4810    1.9340 H     457  INH457      0.0633
     42  H18       -0.2270   -7.3550    1.5060 H     457  INH457      0.2099
     43  H19        0.8960   -8.1350   -0.9720 H     457  INH457      0.0646
     44  H20       -0.0780  -10.2080   -0.4510 H     457  INH457      0.2100
     45  H21        2.5670  -10.3980    0.2050 H     457  INH457      0.0647
     46  H22        2.1060   -9.5000   -2.6780 H     457  INH457      0.0584
     47  H23        1.0650  -10.7050   -1.8460 H     457  INH457      0.0584
     48  H24        2.8340  -11.6900   -2.9970 H     457  INH457      0.2095
@<TRIPOS>BOND
     1     1    25    1
     2     1     2    1
     3     2    26    1
     4     2    11    1
     5     2     3    1
     6     3    27    1
     7     3     5    1
     8     3     4    1
     9     4    28    1
    10     5    29    1
    11     5     7    1
    12     5     6    1
    13     6    30    1
    14     7    31    1
    15     7    10    1
    16     7     8    1
    17     8    33    1
    18     8    32    1
    19     8     9    1
    20     9    34    1
    21    10    11    1
    22    11    35    1
    23    11    12    1
    24    12    13    1
    25    13    36    1
    26    13    18    1
    27    13    14    1
    28    14    37    1
    29    14    17    1
    30    14    15    1
    31    15    16    1
    32    16    40    1
    33    16    39    1
    34    16    38    1
    35    17    22    1
    36    18    20    1
    37    18    41    1
    38    18    19    1
    39    19    42    1
    40    20    22    1
    41    20    43    1
    42    20    21    1
    43    21    44    1
    44    22    45    1
    45    22    23    1
    46    23    47    1
    47    23    46    1
    48    23    24    1
    49    24    48    1
