@<TRIPOS>MOLECULE
/tmp/ewbell/vina_1x9d_1x9d_lig/vina/vina1.pdbqt
 31 32 0 0 0
SMALL
GASTEIGER

@<TRIPOS>ATOM
      1  S1         3.0680   -5.9810   -0.4080 S.3   457  INH457     -0.1220
      2  C6         2.1840   -4.5440    0.3010 C.3   457  INH457      0.2150
      3  C1         1.5650   -3.7810   -0.8320 C.3   457  INH457      0.1880
      4  C2         1.9510   -2.3310   -0.8850 C.3   457  INH457      0.1810
      5  C3         3.4360   -2.1370   -0.6930 C.3   457  INH457      0.1800
      6  C4         3.8520   -2.7040    0.6570 C.3   457  INH457      0.1780
      7  O5         2.9540   -3.6970    1.1890 O.3   457  INH457     -0.3630
      8  O1         0.1390   -3.8530   -0.7170 O.3   457  INH457     -0.3890
      9  H1        -0.2580   -3.1880   -1.2650 H     457  INH457      0.2100
     10  O2         1.2660   -1.5820    0.1580 O.3   457  INH457     -0.3900
     11  H4         0.5660   -1.0670   -0.2280 H     457  INH457      0.2100
     12  O3         4.1450   -2.7100   -1.8190 O.3   457  INH457     -0.3900
     13  H6         3.5470   -2.8190   -2.5480 H     457  INH457      0.2100
     14  C5         3.8760   -1.5720    1.6840 C.3   457  INH457      0.1980
     15  O4         4.2280   -2.0410    2.9680 O.3   457  INH457     -0.3980
     16  H10        3.5450   -1.8140    3.5860 H     457  INH457      0.2090
     17  C7         3.0570   -7.2610    0.8760 C.3   457  INH457      0.1360
     18  C10        1.7080   -7.9900    1.0020 C.3   457  INH457      0.1680
     19  C11        1.4190   -8.8880   -0.2120 C.3   457  INH457      0.1790
     20  C12        2.5990   -9.7860   -0.5210 C.3   457  INH457      0.1790
     21  O7         3.8320   -9.0320   -0.5590 O.3   457  INH457     -0.3500
     22  C8         4.1360   -8.2840    0.6110 C.3   457  INH457      0.2760
     23  O8         0.6900   -7.0140    1.1880 O.3   457  INH457     -0.3920
     24  H18        0.0240   -7.1210    0.5190 H     457  INH457      0.2100
     25  O9         0.2910   -9.7470    0.0760 O.3   457  INH457     -0.3900
     26  H20       -0.0070  -10.1570   -0.7280 H     457  INH457      0.2100
     27  C13        2.3980  -10.4150   -1.8810 C.3   457  INH457      0.1980
     28  O10        2.8710  -11.7660   -1.8510 O.3   457  INH457     -0.3980
     29  H24        2.6090  -12.2110   -2.6490 H     457  INH457      0.2090
     30  O6         4.2080   -9.1160    1.7690 O.3   457  INH457     -0.3650
     31  C9         5.5180   -9.1850    2.3590 C.3   457  INH457      0.2040
@<TRIPOS>BOND
     1    29    28    1
     2    13    12    1
     3    27    28    1
     4    27    20    1
     5    12     5    1
     6     9     8    1
     7     4     3    1
     8     4     5    1
     9     4    10    1
    10     3     8    1
    11     3     2    1
    12    26    25    1
    13     5     6    1
    14    21    20    1
    15    21    22    1
    16    20    19    1
    17     1     2    1
    18     1    17    1
    19    11    10    1
    20    19    25    1
    21    19    18    1
    22     2     7    1
    23    24    23    1
    24    22    17    1
    25    22    30    1
    26     6     7    1
    27     6    14    1
    28    17    18    1
    29    18    23    1
    30    14    15    1
    31    30    31    1
    32    15    16    1
