@<TRIPOS>MOLECULE
/tmp/ewbell/vina_1x9d_1x9d_lig/vina/vina5.pdbqt
 31 32 0 0 0
SMALL
GASTEIGER

@<TRIPOS>ATOM
      1  S1         1.7930   -7.1090    1.2730 S.3   457  INH457     -0.1220
      2  C6         3.2880   -7.9110    0.5850 C.3   457  INH457      0.2150
      3  C1         3.3430   -7.6000   -0.8810 C.3   457  INH457      0.1880
      4  C2         3.4280   -8.8090   -1.7670 C.3   457  INH457      0.1810
      5  C3         2.4420   -9.8770   -1.3560 C.3   457  INH457      0.1800
      6  C4         2.7220  -10.3030    0.0780 C.3   457  INH457      0.1780
      7  O5         3.4350   -9.3260    0.8610 O.3   457  INH457     -0.3630
      8  O1         4.4920   -6.7840   -1.1390 O.3   457  INH457     -0.3890
      9  H1         4.2240   -5.8760   -1.2180 H     457  INH457      0.2100
     10  O2         4.7610   -9.3900   -1.7120 O.3   457  INH457     -0.3900
     11  H4         5.4050   -8.6970   -1.6260 H     457  INH457      0.2100
     12  O3         1.0940   -9.3970   -1.5780 O.3   457  INH457     -0.3900
     13  H6         0.5680  -10.0900   -1.9590 H     457  INH457      0.2100
     14  C5         3.6060  -11.5490    0.0620 C.3   457  INH457      0.1980
     15  O4         3.5930  -12.1810   -1.1990 O.3   457  INH457     -0.3980
     16  H10        4.4780  -12.2270   -1.5390 H     457  INH457      0.2090
     17  C7         1.3670   -5.7730    0.1240 C.3   457  INH457      0.1360
     18  C10       -0.1420   -5.6630   -0.1550 C.3   457  INH457      0.1680
     19  C11       -0.9230   -5.1620    1.0710 C.3   457  INH457      0.1790
     20  C12       -0.2920   -3.9110    1.6480 C.3   457  INH457      0.1790
     21  O7         1.1340   -4.0790    1.8190 O.3   457  INH457     -0.3500
     22  C8         1.8580   -4.4460    0.6520 C.3   457  INH457      0.2760
     23  O8        -0.6080   -6.9340   -0.5920 O.3   457  INH457     -0.3920
     24  H18       -1.3090   -6.8140   -1.2210 H     457  INH457      0.2100
     25  O9        -2.2740   -4.8200    0.6810 O.3   457  INH457     -0.3900
     26  H20       -2.2790   -3.9560    0.2850 H     457  INH457      0.2100
     27  C13       -0.8930   -3.6370    3.0080 C.3   457  INH457      0.1980
     28  O10       -1.3180   -4.8710    3.5940 O.3   457  INH457     -0.3980
     29  H24       -0.6340   -5.2040    4.1630 H     457  INH457      0.2090
     30  O6         1.6880   -3.4960   -0.4000 O.3   457  INH457     -0.3650
     31  C9         2.7610   -2.5440   -0.5080 C.3   457  INH457      0.2040
@<TRIPOS>BOND
     1    13    12    1
     2     4    10    1
     3     4     5    1
     4     4     3    1
     5    10    11    1
     6    12     5    1
     7    16    15    1
     8     5     6    1
     9    24    23    1
    10     9     8    1
    11    15    14    1
    12     8     3    1
    13     3     2    1
    14    23    18    1
    15    31    30    1
    16    30    22    1
    17    18    17    1
    18    18    19    1
    19    14     6    1
    20     6     7    1
    21    17    22    1
    22    17     1    1
    23    26    25    1
    24     2     7    1
    25     2     1    1
    26    22    21    1
    27    25    19    1
    28    19    20    1
    29    20    21    1
    30    20    27    1
    31    27    28    1
    32    28    29    1
