@<TRIPOS>MOLECULE
/tmp/ewbell/vina_1x9d_1x9d_lig/vina/vina2.pdbqt
 31 32 0 0 0
SMALL
GASTEIGER

@<TRIPOS>ATOM
      1  S1         1.8540   -6.4080    1.0300 S.3   457  INH457     -0.1220
      2  C6         1.9370   -7.7740   -0.1860 C.3   457  INH457      0.2150
      3  C1         1.6670   -9.0560    0.5440 C.3   457  INH457      0.1880
      4  C2         2.7380  -10.0960    0.3820 C.3   457  INH457      0.1810
      5  C3         4.1190   -9.5130    0.5620 C.3   457  INH457      0.1800
      6  C4         4.3460   -8.4160   -0.4690 C.3   457  INH457      0.1780
      7  O5         3.1370   -7.8340   -0.9950 O.3   457  INH457     -0.3630
      8  O1         0.4370   -9.6120    0.0660 O.3   457  INH457     -0.3890
      9  H1        -0.2930   -9.1970    0.5100 H     457  INH457      0.2100
     10  O2         2.6750  -10.6920   -0.9440 O.3   457  INH457     -0.3900
     11  H4         2.6150  -11.6370   -0.8640 H     457  INH457      0.2100
     12  O3         4.2830   -9.0790    1.9340 O.3   457  INH457     -0.3900
     13  H6         5.0500   -9.4950    2.3090 H     457  INH457      0.2100
     14  C5         5.0790   -9.0100   -1.6720 C.3   457  INH457      0.1980
     15  O4         4.2220   -9.1560   -2.7840 O.3   457  INH457     -0.3980
     16  H10        4.1900  -10.0700   -3.0390 H     457  INH457      0.2090
     17  C7         1.1120   -5.0030    0.1580 C.3   457  INH457      0.1360
     18  C10       -0.4190   -5.0980    0.0350 C.3   457  INH457      0.1680
     19  C11       -1.1210   -4.9160    1.3900 C.3   457  INH457      0.1790
     20  C12       -0.6180   -3.6790    2.1060 C.3   457  INH457      0.1790
     21  O7         0.8270   -3.6390    2.1200 O.3   457  INH457     -0.3500
     22  C8         1.4610   -3.7070    0.8500 C.3   457  INH457      0.2760
     23  O8        -0.7420   -6.3480   -0.5610 O.3   457  INH457     -0.3920
     24  H18        0.0480   -6.8680   -0.6550 H     457  INH457      0.2100
     25  O9        -2.5430   -4.7420    1.1820 O.3   457  INH457     -0.3900
     26  H20       -2.6910   -4.3380    0.3340 H     457  INH457      0.2100
     27  C13       -1.0960   -3.7100    3.5400 C.3   457  INH457      0.1980
     28  O10       -1.6130   -5.0110    3.8370 O.3   457  INH457     -0.3980
     29  H24       -2.5040   -4.9320    4.1590 H     457  INH457      0.2090
     30  O6         1.0380   -2.6510   -0.0130 O.3   457  INH457     -0.3650
     31  C9         1.7200   -2.6200   -1.2780 C.3   457  INH457      0.2040
@<TRIPOS>BOND
     1    16    15    1
     2    15    14    1
     3    14     6    1
     4    31    30    1
     5     7     6    1
     6     7     2    1
     7    10    11    1
     8    10     4    1
     9    24    23    1
    10    23    18    1
    11     6     5    1
    12     2     3    1
    13     2     1    1
    14    30    22    1
    15    18    17    1
    16    18    19    1
    17     8     9    1
    18     8     3    1
    19    17    22    1
    20    17     1    1
    21    26    25    1
    22     4     3    1
    23     4     5    1
    24     5    12    1
    25    22    21    1
    26    25    19    1
    27    19    20    1
    28    12    13    1
    29    20    21    1
    30    20    27    1
    31    27    28    1
    32    28    29    1
