@<TRIPOS>MOLECULE
/tmp/ewbell/vina_1x9d_1x9d_lig/vina/vina4.pdbqt
 31 32 0 0 0
SMALL
GASTEIGER

@<TRIPOS>ATOM
      1  S1         2.6350   -7.2790    1.0080 S.3   457  INH457     -0.1220
      2  C6         1.3590   -5.9670    0.9820 C.3   457  INH457      0.2150
      3  C1         0.7040   -5.9910   -0.3680 C.3   457  INH457      0.1880
      4  C2         0.7340   -4.6760   -1.0920 C.3   457  INH457      0.1810
      5  C3         2.0990   -4.0320   -1.0330 C.3   457  INH457      0.1800
      6  C4         2.4870   -3.7970    0.4200 C.3   457  INH457      0.1780
      7  O5         1.8000   -4.6420    1.3640 O.3   457  INH457     -0.3630
      8  O1        -0.6670   -6.3770   -0.2120 O.3   457  INH457     -0.3890
      9  H1        -1.0580   -5.8780    0.4950 H     457  INH457      0.2100
     10  O2        -0.2220   -3.7480   -0.5060 O.3   457  INH457     -0.3900
     11  H4         0.2100   -3.2300    0.1650 H     457  INH457      0.2100
     12  O3         3.0440   -4.8410   -1.7740 O.3   457  INH457     -0.3900
     13  H6         3.8460   -4.3500   -1.9060 H     457  INH457      0.2100
     14  C5         2.1250   -2.3630    0.8050 C.3   457  INH457      0.1980
     15  O4         0.9500   -2.3140    1.5850 O.3   457  INH457     -0.3980
     16  H10        0.7210   -1.4080    1.7550 H     457  INH457      0.2090
     17  C7         2.4410   -8.2010   -0.5410 C.3   457  INH457      0.1360
     18  C10        3.7690   -8.4500   -1.2760 C.3   457  INH457      0.1680
     19  C11        4.6650   -9.4530   -0.5300 C.3   457  INH457      0.1790
     20  C12        3.8960  -10.7070   -0.1650 C.3   457  INH457      0.1790
     21  O7         2.6350  -10.3800    0.4620 O.3   457  INH457     -0.3500
     22  C8         1.7740   -9.5300   -0.2840 C.3   457  INH457      0.2760
     23  O8         4.4210   -7.1990   -1.4580 O.3   457  INH457     -0.3920
     24  H18        5.1420   -7.3040   -2.0670 H     457  INH457      0.2100
     25  O9         5.7610   -9.8560   -1.3840 O.3   457  INH457     -0.3900
     26  H20        5.5000   -9.7710   -2.2940 H     457  INH457      0.2100
     27  C13        4.7090  -11.5150    0.8200 C.3   457  INH457      0.1980
     28  O10        5.6230  -10.6500    1.5010 O.3   457  INH457     -0.3980
     29  H24        6.3270  -11.1640    1.8770 H     457  INH457      0.2090
     30  O6         1.4560  -10.0860   -1.5610 O.3   457  INH457     -0.3650
     31  C9         0.2340   -9.5830   -2.1300 C.3   457  INH457      0.2040
@<TRIPOS>BOND
     1    26    25    1
     2    31    30    1
     3    24    23    1
     4    13    12    1
     5    12     5    1
     6    30    22    1
     7    23    18    1
     8    25    19    1
     9    18    17    1
    10    18    19    1
    11     4     5    1
    12     4    10    1
    13     4     3    1
    14     5     6    1
    15    17    22    1
    16    17     1    1
    17    19    20    1
    18    10    11    1
    19     3     8    1
    20     3     2    1
    21    22    21    1
    22     8     9    1
    23    20    21    1
    24    20    27    1
    25     6    14    1
    26     6     7    1
    27    14    15    1
    28    27    28    1
    29     2     1    1
    30     2     7    1
    31    28    29    1
    32    15    16    1
