@<TRIPOS>MOLECULE
/tmp/ewbell/vina_1x9d_1x9d_lig/vina/vina3.pdbqt
 31 32 0 0 0
SMALL
GASTEIGER

@<TRIPOS>ATOM
      1  S1         3.7210   -6.9610    0.6310 S.3   457  INH457     -0.1220
      2  C6         3.7600   -5.7180   -0.7110 C.3   457  INH457      0.2150
      3  C1         4.8840   -4.7670   -0.4240 C.3   457  INH457      0.1880
      4  C2         4.4740   -3.3230   -0.3690 C.3   457  INH457      0.1810
      5  C3         3.2190   -3.1270    0.4470 C.3   457  INH457      0.1800
      6  C4         2.0820   -3.9340   -0.1650 C.3   457  INH457      0.1780
      7  O5         2.5110   -5.0380   -0.9860 O.3   457  INH457     -0.3630
      8  O1         5.8800   -4.9030   -1.4450 O.3   457  INH457     -0.3890
      9  H1         6.6760   -4.4640   -1.1720 H     457  INH457      0.2100
     10  O2         4.2190   -2.8140   -1.7090 O.3   457  INH457     -0.3900
     11  H4         4.5240   -1.9160   -1.7690 H     457  INH457      0.2100
     12  O3         3.4910   -3.4470    1.8330 O.3   457  INH457     -0.3900
     13  H6         3.1870   -4.3260    2.0210 H     457  INH457      0.2100
     14  C5         1.2670   -3.0250   -1.0850 C.3   457  INH457      0.1980
     15  O4         1.5940   -1.6650   -0.8970 O.3   457  INH457     -0.3980
     16  H10        0.8840   -1.2290   -0.4420 H     457  INH457      0.2090
     17  C7         4.8580   -8.2810    0.1270 C.3   457  INH457      0.1360
     18  C10        4.5440   -9.6400    0.7760 C.3   457  INH457      0.1680
     19  C11        3.2400  -10.2510    0.2370 C.3   457  INH457      0.1790
     20  C12        3.2200  -10.2510   -1.2780 C.3   457  INH457      0.1790
     21  O7         3.5870   -8.9550   -1.8020 O.3   457  INH457     -0.3500
     22  C8         4.8430   -8.4460   -1.3730 C.3   457  INH457      0.2760
     23  O8         4.4980   -9.4620    2.1860 O.3   457  INH457     -0.3920
     24  H18        4.3340   -8.5480    2.3840 H     457  INH457      0.2100
     25  O9         3.1340  -11.6290    0.6670 O.3   457  INH457     -0.3900
     26  H20        4.0000  -11.9650    0.8680 H     457  INH457      0.2100
     27  C13        1.8190  -10.5650   -1.7530 C.3   457  INH457      0.1980
     28  O10        0.8840  -10.2140   -0.7290 O.3   457  INH457     -0.3980
     29  H24        0.9890  -10.7990    0.0120 H     457  INH457      0.2090
     30  O6         5.9140   -9.3310   -1.7010 O.3   457  INH457     -0.3650
     31  C9         7.2140   -8.7170   -1.6600 C.3   457  INH457      0.2040
@<TRIPOS>BOND
     1    21    22    1
     2    21    20    1
     3    11    10    1
     4    27    20    1
     5    27    28    1
     6    10     4    1
     7    30    31    1
     8    30    22    1
     9     8     9    1
    10     8     3    1
    11    22    17    1
    12    20    19    1
    13    14    15    1
    14    14     6    1
    15     7     2    1
    16     7     6    1
    17    15    16    1
    18    28    29    1
    19     2     3    1
    20     2     1    1
    21     3     4    1
    22     4     5    1
    23     6     5    1
    24    17     1    1
    25    17    18    1
    26    19    25    1
    27    19    18    1
    28     5    12    1
    29    25    26    1
    30    18    23    1
    31    12    13    1
    32    23    24    1
