@<TRIPOS>MOLECULE
./ligand/2qrk_lig.pdb
 35 37 0 0 0
SMALL
GASTEIGER

@<TRIPOS>ATOM
      1  P1        29.8420    4.0540    6.9800 P.3   368  INH368      0.5320
      2  O1        29.9870    5.4360    6.3680 O.3   368  INH368     -0.1145
      3  O2        30.0090    2.9770    5.9210 O.3   368  INH368     -0.1145
      4  O3        28.6270    3.8520    7.8920 O.2   368  INH368     -0.2224
      5  O4        31.1640    3.9620    7.8720 O.3   368  INH368     -0.2809
      6  C1        31.5930    2.7450    8.4380 C.3   368  INH368      0.0880
      7  C2        32.4570    3.1390    9.6170 C.3   368  INH368      0.1134
      8  O5        32.7240    1.9210   10.2950 O.3   368  INH368     -0.3456
      9  C3        33.7850    3.7790    9.2270 C.3   368  INH368      0.1135
     10  O6        34.1090    4.8530   10.1280 O.3   368  INH368     -0.3864
     11  C4        34.7560    2.6210    9.4080 C.3   368  INH368      0.1285
     12  O7        36.1070    3.0170    9.6900 O.3   368  INH368     -0.3847
     13  C5        34.1100    1.8940   10.5770 C.3   368  INH368      0.1665
     14  N1        34.5730    0.4950   10.6840 N.ar  368  INH368     -0.2877
     15  C6        34.8010   -0.3670    9.6580 C.ar  368  INH368      0.0999
     16  N2        35.2330   -1.5620   10.1430 N.ar  368  INH368     -0.2346
     17  C7        35.2760   -1.4480   11.4970 C.ar  368  INH368      0.1287
     18  C8        35.6520   -2.3270   12.6220 C.3   368  INH368      0.2004
     19  N3        36.0800   -3.5960   12.3500 N.3   368  INH368     -0.2985
     20  N4        35.5690   -1.8190   13.8850 N.2   368  INH368     -0.2420
     21  C9        35.1600   -0.5480   14.1470 C.2   368  INH368      0.1049
     22  N5        34.8010    0.3120   13.1580 N.pl3 368  INH368     -0.1840
     23  C10       34.8470   -0.0830   11.8530 C.ar  368  INH368      0.1528
     24  H1        32.1770    2.1650    7.7080 H     368  INH368      0.0592
     25  H2        30.7310    2.1500    8.7730 H     368  INH368      0.0592
     26  H3        31.9030    3.8330   10.2660 H     368  INH368      0.0647
     27  H4        33.7740    4.1450    8.1900 H     368  INH368      0.0647
     28  H5        34.1160    4.5260   11.0200 H     368  INH368      0.2100
     29  H6        34.7660    1.9860    8.5100 H     368  INH368      0.0665
     30  H7        36.1260    3.5230   10.4940 H     368  INH368      0.2101
     31  H8        34.3260    2.4200   11.5190 H     368  INH368      0.0866
     32  H9        34.6590   -0.1350    8.6040 H     368  INH368      0.1030
     33  H10       36.3470   -4.2260   13.1200 H     368  INH368      0.1209
     34  H11       36.1350   -3.9230   11.3750 H     368  INH368      0.1209
     35  H12       35.1190   -0.2110   15.1770 H     368  INH368      0.1015
@<TRIPOS>BOND
     1     1     5    1
     2     1     4    2
     3     1     3    1
     4     1     2    1
     5     5     6    1
     6     6    25    1
     7     6    24    1
     8     6     7    1
     9     7    26    1
    10     7     9    1
    11     7     8    1
    12     8    13    1
    13     9    11    1
    14     9    27    1
    15     9    10    1
    16    10    28    1
    17    11    13    1
    18    11    29    1
    19    11    12    1
    20    12    30    1
    21    13    31    1
    22    13    14    1
    23    14    23   ar
    24    14    15   ar
    25    15    32    1
    26    15    16   ar
    27    16    17   ar
    28    17    23   ar
    29    17    18    1
    30    18    20    1
    31    18    19    1
    32    19    34    1
    33    19    33    1
    34    20    21    2
    35    21    35    1
    36    21    22    1
    37    22    23    1
