@<TRIPOS>MOLECULE
/tmp/ewbell/vina_2qrk_2qrk_lig/vina/vina1.pdbqt
 32 34 0 0 0
SMALL
GASTEIGER

@<TRIPOS>ATOM
      1  C2        25.4200   -0.4350    4.5040 C.3   368  INH368      0.1800
      2  O5        24.4680   -1.0810    5.3360 O.3   368  INH368     -0.3530
      3  C3        24.8030    0.8530    3.9690 C.3   368  INH368      0.1820
      4  C4        23.6020    1.0300    4.8870 C.3   368  INH368      0.1980
      5  C5        23.2310   -0.4220    5.1450 C.3   368  INH368      0.2620
      6  N1        22.3910   -0.5730    6.3510 N.pl3 368  INH368     -0.2970
      7  C10       21.0590   -0.5760    6.3030 C.2   368  INH368      0.1380
      8  C7        20.6410   -0.7380    7.7080 C.2   368  INH368      0.0970
      9  N5        20.1300   -0.4750    5.3090 N.pl3 368  INH368     -0.3370
     10  N2        21.7610   -0.8050    8.4750 N.pl3 368  INH368     -0.3490
     11  C8        19.1850   -0.7700    7.9540 C.3   368  INH368      0.2300
     12  C6        22.8240   -0.7030    7.6330 C.3   368  INH368      0.1870
     13  H2        21.7970   -0.9110    9.4890 H     368  INH368      0.1660
     14  N4        18.3530   -0.6560    6.8800 N.3   368  INH368     -0.3600
     15  C9        18.8040   -0.5130    5.6040 C.3   368  INH368      0.1790
     16  H4        17.3460   -0.6790    7.0400 H     368  INH368      0.1620
     17  H         20.4220   -0.3740    4.3740 H     368  INH368      0.1680
     18  N3        18.7390   -0.8950    9.2400 N.3   368  INH368     -0.4060
     19  H11       18.1240   -1.6800    9.4980 H     368  INH368      0.1520
     20  H10       19.0170   -0.2040    9.9510 H     368  INH368      0.1520
     21  O7        22.5190    1.7770    4.3110 O.3   368  INH368     -0.3880
     22  H7        21.8850    1.1760    3.9380 H     368  INH368      0.2100
     23  C1        26.6270   -0.2180    5.3920 C.3   368  INH368      0.2150
     24  O4        26.1400   -0.3330    6.7100 O.3   368  INH368     -0.2940
     25  P1        26.4410    0.7800    7.8160 P.3   368  INH368      0.3900
     26  O3        25.8140    2.1010    7.3560 O.2   368  INH368     -0.6320
     27  O2        27.9550    0.8180    7.9310 O.3   368  INH368     -0.3070
     28  H         28.2170    0.5700    8.8310 H     368  INH368      0.2220
     29  O1        25.8240    0.1510    9.0520 O.3   368  INH368     -0.3070
     30  H         26.3010    0.4520    9.8400 H     368  INH368      0.2220
     31  O6        24.3740    0.6770    2.6070 O.3   368  INH368     -0.3900
     32  H5        23.4380    0.8270    2.5490 H     368  INH368      0.2100
@<TRIPOS>BOND
     1    32    31    1
     2    31     3    1
     3    22    21    1
     4     3     1    1
     5     3     4    1
     6    21     4    1
     7    17     9    1
     8     1     2    1
     9     1    23    1
    10     4     5    1
    11     5     2    1
    12     5     6    1
    13     9    15    1
    14     9     7    1
    15    23    24    1
    16    15    14    1
    17     7     6    1
    18     7     8    2
    19     6    12    1
    20    24    25    1
    21    14    16    1
    22    14    11    1
    23    26    25    2
    24    12    10    1
    25     8    11    1
    26     8    10    1
    27    25    27    1
    28    25    29    1
    29    27    28    1
    30    11    18    1
    31    10    13    1
    32    29    30    1
    33    18    19    1
    34    18    20    1
