@<TRIPOS>MOLECULE
/tmp/ewbell/vina_2qrk_2qrk_lig/vina/vina5.pdbqt
 32 34 0 0 0
SMALL
GASTEIGER

@<TRIPOS>ATOM
      1  C2        22.2160    0.5680    6.5380 C.3   368  INH368      0.1800
      2  O5        23.2910    0.9870    7.3650 O.3   368  INH368     -0.3530
      3  C3        22.6900    0.5660    5.0890 C.3   368  INH368      0.1820
      4  C4        24.2010    0.6420    5.2530 C.3   368  INH368      0.1980
      5  C5        24.3030    1.4880    6.5130 C.3   368  INH368      0.2620
      6  N1        25.6210    1.3520    7.1670 N.pl3 368  INH368     -0.2970
      7  C10       26.5730    2.2780    7.0620 C.2   368  INH368      0.1380
      8  C7        27.7000    1.7390    7.8460 C.2   368  INH368      0.0970
      9  N5        26.6770    3.4890    6.4410 N.pl3 368  INH368     -0.3370
     10  N2        27.3260    0.5290    8.3410 N.pl3 368  INH368     -0.3490
     11  C8        28.9160    2.5740    7.8990 C.3   368  INH368      0.2300
     12  C6        26.0520    0.3050    7.9180 C.3   368  INH368      0.1870
     13  H2        27.8920   -0.0920    8.9190 H     368  INH368      0.1660
     14  N4        28.9020    3.7660    7.2340 N.3   368  INH368     -0.3600
     15  C9        27.8250    4.2090    6.5310 C.3   368  INH368      0.1790
     16  H4        29.7370    4.3510    7.2670 H     368  INH368      0.1620
     17  H         25.9160    3.8420    5.9250 H     368  INH368      0.1680
     18  N3        30.0000    2.1140    8.5920 N.3   368  INH368     -0.4060
     19  H11       30.0370    1.1310    8.8960 H     368  INH368      0.1520
     20  H10       30.7800    2.7500    8.8100 H     368  INH368      0.1520
     21  O7        24.8910    1.2330    4.1410 O.3   368  INH368     -0.3880
     22  H7        24.6300    2.1430    4.0560 H     368  INH368      0.2100
     23  C1        21.8340   -0.8000    7.0630 C.3   368  INH368      0.2150
     24  O4        20.8670   -0.5560    8.0590 O.3   368  INH368     -0.2940
     25  P1        19.3470   -1.0170    7.8850 P.3   368  INH368      0.3900
     26  O3        18.7640   -0.3100    6.6560 O.2   368  INH368     -0.6320
     27  O2        18.6730   -0.6430    9.1940 O.3   368  INH368     -0.3070
     28  H         19.0690    0.1720    9.5410 H     368  INH368      0.2220
     29  O1        19.5000   -2.5230    7.7710 O.3   368  INH368     -0.3070
     30  H         20.3620   -2.7310    7.3780 H     368  INH368      0.2220
     31  O6        22.1990    1.7290    4.3980 O.3   368  INH368     -0.3900
     32  H5        21.5610    1.4630    3.7460 H     368  INH368      0.2100
@<TRIPOS>BOND
     1    32    31    1
     2    22    21    1
     3    21     4    1
     4    31     3    1
     5     3     4    1
     6     3     1    1
     7     4     5    1
     8    17     9    1
     9     9    15    1
    10     9     7    1
    11     5     6    1
    12     5     2    1
    13    15    14    1
    14     1    23    1
    15     1     2    1
    16    26    25    2
    17     7     6    1
    18     7     8    2
    19    23    24    1
    20     6    12    1
    21    14    16    1
    22    14    11    1
    23    30    29    1
    24    29    25    1
    25     8    11    1
    26     8    10    1
    27    25    24    1
    28    25    27    1
    29    11    18    1
    30    12    10    1
    31    10    13    1
    32    18    20    1
    33    18    19    1
    34    27    28    1
