@<TRIPOS>MOLECULE
/tmp/ewbell/vina_2qrk_2qrk_lig/vina/vina3.pdbqt
 32 34 0 0 0
SMALL
GASTEIGER

@<TRIPOS>ATOM
      1  C2        20.6130    1.0550    4.9850 C.3   368  INH368      0.1800
      2  O5        21.8170    1.6970    5.3750 O.3   368  INH368     -0.3530
      3  C3        20.9390    0.0190    3.9140 C.3   368  INH368      0.1820
      4  C4        22.4500   -0.1040    4.0480 C.3   368  INH368      0.1980
      5  C5        22.8130    1.3190    4.4450 C.3   368  INH368      0.2620
      6  N1        24.1460    1.3940    5.0780 N.pl3 368  INH368     -0.2970
      7  C10       24.3680    0.9980    6.3310 C.2   368  INH368      0.1380
      8  C7        25.8040    1.2570    6.5490 C.2   368  INH368      0.0970
      9  N5        23.6020    0.4580    7.3220 N.pl3 368  INH368     -0.3370
     10  N2        26.3110    1.7980    5.4090 N.pl3 368  INH368     -0.3490
     11  C8        26.3330    0.9090    7.8820 C.3   368  INH368      0.2300
     12  C6        25.2870    1.8760    4.5180 C.3   368  INH368      0.1870
     13  H2        27.2760    2.0890    5.2520 H     368  INH368      0.1660
     14  N4        25.4690    0.3780    8.7940 N.3   368  INH368     -0.3600
     15  C9        24.1530    0.1600    8.5280 C.3   368  INH368      0.1790
     16  H4        25.8260    0.1330    9.7180 H     368  INH368      0.1620
     17  H         22.6460    0.2840    7.1630 H     368  INH368      0.1680
     18  N3        27.6520    1.1490    8.1490 N.3   368  INH368     -0.4060
     19  H11       28.1510    1.8960    7.6460 H     368  INH368      0.1520
     20  H10       28.1470    0.5820    8.8520 H     368  INH368      0.1520
     21  O7        23.1200   -0.5250    2.8500 O.3   368  INH368     -0.3880
     22  H7        22.5030   -0.5260    2.1270 H     368  INH368      0.2100
     23  C1        20.0570    0.4650    6.2640 C.3   368  INH368      0.2150
     24  O4        20.2000   -0.9300    6.1190 O.3   368  INH368     -0.2940
     25  P1        20.7430   -1.8470    7.3100 P.3   368  INH368      0.3900
     26  O3        22.0880   -2.4450    6.8860 O.2   368  INH368     -0.6320
     27  O2        19.6490   -2.8770    7.5390 O.3   368  INH368     -0.3070
     28  H         18.7850   -2.4370    7.5390 H     368  INH368      0.2220
     29  O1        20.7930   -0.8530    8.4570 O.3   368  INH368     -0.3070
     30  H         21.5850   -1.0170    8.9910 H     368  INH368      0.2220
     31  O6        20.5880    0.5170    2.6110 O.3   368  INH368     -0.3900
     32  H5        20.9500    1.3880    2.4970 H     368  INH368      0.2100
@<TRIPOS>BOND
     1    22    21    1
     2    32    31    1
     3    31     3    1
     4    21     4    1
     5     3     4    1
     6     3     1    1
     7     4     5    1
     8     5     6    1
     9     5     2    1
    10    12     6    1
    11    12    10    1
    12     1     2    1
    13     1    23    1
    14     6     7    1
    15    13    10    1
    16    10     8    1
    17    24    23    1
    18    24    25    1
    19     7     8    2
    20     7     9    1
    21     8    11    1
    22    26    25    2
    23    17     9    1
    24    25    27    1
    25    25    29    1
    26     9    15    1
    27    27    28    1
    28    19    18    1
    29    11    18    1
    30    11    14    1
    31    18    20    1
    32    29    30    1
    33    15    14    1
    34    14    16    1
