@<TRIPOS>MOLECULE
/tmp/ewbell/vina_2qrk_2qrk_lig/vina/vina4.pdbqt
 32 34 0 0 0
SMALL
GASTEIGER

@<TRIPOS>ATOM
      1  C2        20.3800    0.9640    4.6570 C.3   368  INH368      0.1800
      2  O5        21.3400    1.3730    5.6190 O.3   368  INH368     -0.3530
      3  C3        21.1150    0.4050    3.4440 C.3   368  INH368      0.1820
      4  C4        22.5170    0.1930    3.9970 C.3   368  INH368      0.1980
      5  C5        22.6050    1.3460    4.9850 C.3   368  INH368      0.2620
      6  N1        23.6660    1.1340    5.9920 N.pl3 368  INH368     -0.2970
      7  C10       24.9460    1.4180    5.7560 C.2   368  INH368      0.1380
      8  C7        25.6410    1.0480    7.0030 C.2   368  INH368      0.0970
      9  N5        25.6410    1.9310    4.7000 N.pl3 368  INH368     -0.3370
     10  N2        24.7140    0.5630    7.8720 N.pl3 368  INH368     -0.3490
     11  C8        27.1020    1.2580    7.0210 C.3   368  INH368      0.2300
     12  C6        23.5110    0.6210    7.2410 C.3   368  INH368      0.1870
     13  H2        24.8890    0.2210    8.8170 H     368  INH368      0.1660
     14  N4        27.6870    1.7740    5.9030 N.3   368  INH368     -0.3600
     15  C9        26.9870    2.0990    4.7820 C.3   368  INH368      0.1790
     16  H4        28.6960    1.9240    5.9060 H     368  INH368      0.1620
     17  H         25.1650    2.1790    3.8740 H     368  INH368      0.1680
     18  N3        27.8020    0.9120    8.1430 N.3   368  INH368     -0.4060
     19  H11       27.9030    1.5860    8.9150 H     368  INH368      0.1520
     20  H10       28.2280   -0.0230    8.2160 H     368  INH368      0.1520
     21  O7        23.5590    0.2390    3.0100 O.3   368  INH368     -0.3880
     22  H7        24.0110    1.0730    3.0680 H     368  INH368      0.2100
     23  C1        19.5170   -0.0510    5.3770 C.3   368  INH368      0.2150
     24  O4        19.6880    0.2260    6.7480 O.3   368  INH368     -0.2940
     25  P1        19.5270   -0.9080    7.8610 P.3   368  INH368      0.3900
     26  O3        18.3630   -0.5230    8.7800 O.2   368  INH368     -0.6320
     27  O2        20.8760   -0.9660    8.5590 O.3   368  INH368     -0.3070
     28  H         20.8470   -1.6330    9.2630 H     368  INH368      0.2220
     29  O1        19.3130   -2.1430    7.0040 O.3   368  INH368     -0.3070
     30  H         20.1100   -2.3140    6.4790 H     368  INH368      0.2220
     31  O6        21.1350    1.3710    2.3780 O.3   368  INH368     -0.3900
     32  H5        20.6430    2.1410    2.6400 H     368  INH368      0.2100
@<TRIPOS>BOND
     1    31    32    1
     2    31     3    1
     3    21    22    1
     4    21     4    1
     5     3     4    1
     6     3     1    1
     7    17     9    1
     8     4     5    1
     9     1    23    1
    10     1     2    1
    11     9    15    1
    12     9     7    1
    13    15    14    1
    14     5     2    1
    15     5     6    1
    16    23    24    1
    17     7     6    1
    18     7     8    2
    19    14    16    1
    20    14    11    1
    21     6    12    1
    22    30    29    1
    23    24    25    1
    24     8    11    1
    25     8    10    1
    26    29    25    1
    27    11    18    1
    28    12    10    1
    29    25    27    1
    30    25    26    2
    31    10    13    1
    32    18    20    1
    33    18    19    1
    34    27    28    1
