@<TRIPOS>MOLECULE
/tmp/ewbell/vina_2qrk_2qrk_lig/vina/vina2.pdbqt
 32 34 0 0 0
SMALL
GASTEIGER

@<TRIPOS>ATOM
      1  C2        25.9860    1.2700    7.6790 C.3   368  INH368      0.1800
      2  O5        24.5740    1.4040    7.7330 O.3   368  INH368     -0.3530
      3  C3        26.3210   -0.1080    7.1190 C.3   368  INH368      0.1820
      4  C4        24.9880   -0.5380    6.5230 C.3   368  INH368      0.1980
      5  C5        24.0220    0.1240    7.4930 C.3   368  INH368      0.2620
      6  N1        22.6670    0.2610    6.9190 N.pl3 368  INH368     -0.2970
      7  C10       21.7250   -0.6680    7.0740 C.2   368  INH368      0.1380
      8  C7        20.5600   -0.1360    6.3440 C.2   368  INH368      0.0970
      9  N5        21.6530   -1.8710    7.7140 N.pl3 368  INH368     -0.3370
     10  N2        20.9130    1.0600    5.8040 N.pl3 368  INH368     -0.3490
     11  C8        19.3490   -0.9800    6.3450 C.3   368  INH368      0.2300
     12  C6        22.2040    1.2920    6.1640 C.3   368  INH368      0.1870
     13  H2        20.3220    1.6690    5.2370 H     368  INH368      0.1660
     14  N4        19.3970   -2.1660    7.0180 N.3   368  INH368     -0.3600
     15  C9        20.5060   -2.5990    7.6780 C.3   368  INH368      0.1790
     16  H4        18.5650   -2.7560    7.0260 H     368  INH368      0.1620
     17  H         22.4350   -2.2130    8.2040 H     368  INH368      0.1680
     18  N3        18.2450   -0.5480    5.6640 N.3   368  INH368     -0.4060
     19  H11       17.5550   -1.2290    5.3180 H     368  INH368      0.1520
     20  H10       18.1050    0.4580    5.4970 H     368  INH368      0.1520
     21  O7        24.8010   -1.9590    6.4490 O.3   368  INH368     -0.3880
     22  H7        25.4010   -2.3880    7.0490 H     368  INH368      0.2100
     23  C1        26.4510    2.4190    6.8100 C.3   368  INH368      0.2150
     24  O4        27.8240    2.1850    6.5950 O.3   368  INH368     -0.2940
     25  P1        28.9480    2.9890    7.3970 P.3   368  INH368      0.3900
     26  O3        28.3840    4.3620    7.7780 O.2   368  INH368     -0.6320
     27  O2        30.1370    3.0480    6.4510 O.3   368  INH368     -0.3070
     28  H         29.8520    2.7960    5.5590 H     368  INH368      0.2220
     29  O1        29.2280    2.0450    8.5530 O.3   368  INH368     -0.3070
     30  H         29.5620    1.2030    8.2080 H     368  INH368      0.2220
     31  O6        26.7090   -1.0000    8.1800 O.3   368  INH368     -0.3900
     32  H5        27.3660   -0.5800    8.7220 H     368  INH368      0.2100
@<TRIPOS>BOND
     1    13    10    1
     2    19    18    1
     3    20    18    1
     4    28    27    1
     5    18    11    1
     6    10    12    1
     7    10     8    1
     8    12     6    1
     9     8    11    1
    10     8     7    2
    11    11    14    1
    12    21     4    1
    13    21    22    1
    14    27    25    1
    15     4     3    1
    16     4     5    1
    17    24    23    1
    18    24    25    1
    19    23     1    1
    20     6     7    1
    21     6     5    1
    22    14    16    1
    23    14    15    1
    24     7     9    1
    25     3     1    1
    26     3    31    1
    27    25    26    2
    28    25    29    1
    29     5     2    1
    30    15     9    1
    31     1     2    1
    32     9    17    1
    33    31    32    1
    34    30    29    1
