@<TRIPOS>MOLECULE
./ligand/2boj_lig.pdb
 23 23 0 0 0
SMALL
GASTEIGER

@<TRIPOS>ATOM
      1  C1        28.9100   48.8770    1.7410 C.3   473  INH473      0.1872
      2  C2        27.8290   48.4790    2.7420 C.3   473  INH473      0.1341
      3  C3        27.2610   49.7410    3.3810 C.3   473  INH473      0.1137
      4  C4        26.6950   50.7010    2.3490 C.3   473  INH473      0.1069
      5  C5        27.6880   50.9630    1.2270 C.3   473  INH473      0.0792
      6  O1        29.9490   49.5410    2.4520 O.3   473  INH473     -0.3520
      7  O2        28.3370   47.6270    3.7810 O.3   473  INH473     -0.3841
      8  O3        26.1740   49.3740    4.2390 O.3   473  INH473     -0.3864
      9  O4        25.5490   50.0740    1.7590 O.3   473  INH473     -0.3869
     10  O5        28.3000   49.7500    0.7600 O.3   473  INH473     -0.3461
     11  C6        31.0970   49.8240    1.6360 C.3   473  INH473      0.0395
     12  H1        29.3160   47.9850    1.2420 H     473  INH473      0.0937
     13  H2        27.0290   47.9470    2.2060 H     473  INH473      0.0671
     14  H3        28.0520   50.2420    3.9580 H     473  INH473      0.0647
     15  H4        26.4160   51.6490    2.8330 H     473  INH473      0.0643
     16  H5        28.4740   51.6380    1.5970 H     473  INH473      0.0587
     17  H6        27.1600   51.4410    0.3890 H     473  INH473      0.0587
     18  H7        28.6940   46.8360    3.3950 H     473  INH473      0.2101
     19  H8        26.1140   49.9940    4.9570 H     473  INH473      0.2100
     20  H9        24.9270   50.7400    1.4910 H     473  INH473      0.2100
     21  H10       31.8600   50.3350    2.2410 H     473  INH473      0.0525
     22  H11       30.8000   50.4710    0.7970 H     473  INH473      0.0525
     23  H12       31.5100   48.8830    1.2440 H     473  INH473      0.0525
@<TRIPOS>BOND
     1     1     6    1
     2     1    12    1
     3     1     2    1
     4     1    10    1
     5     2     3    1
     6     2    13    1
     7     2     7    1
     8     3     4    1
     9     3    14    1
    10     3     8    1
    11     4     5    1
    12     4    15    1
    13     4     9    1
    14     5    10    1
    15     5    17    1
    16     5    16    1
    17     6    11    1
    18     7    18    1
    19     8    19    1
    20     9    20    1
    21    11    23    1
    22    11    22    1
    23    11    21    1
