@<TRIPOS>MOLECULE
/tmp/ewbell/vina_2boj_2boj_lig/vina/vina4.pdbqt
 14 14 0 0 0
SMALL
GASTEIGER

@<TRIPOS>ATOM
      1  C1        28.4690   51.7500    3.0360 C.3   473  INH473      0.2900
      2  C2        27.0180   51.4630    2.6600 C.3   473  INH473      0.2040
      3  C3        26.9270   50.0510    2.0930 C.3   473  INH473      0.1820
      4  C4        27.4330   49.0060    3.0720 C.3   473  INH473      0.1730
      5  C5        28.8050   49.3710    3.6180 C.3   473  INH473      0.2050
      6  O5        28.8770   50.7530    4.0040 O.3   473  INH473     -0.3560
      7  O1        29.2560   51.6770    1.8530 O.3   473  INH473     -0.3630
      8  C6        30.0440   52.8570    1.6280 C.3   473  INH473      0.2040
      9  O2        26.5180   52.3850    1.6790 O.3   473  INH473     -0.3880
     10  H7        26.3810   51.9290    0.8570 H     473  INH473      0.2100
     11  O3        25.5500   49.7440    1.8410 O.3   473  INH473     -0.3900
     12  H8        24.9990   50.4050    2.2440 H     473  INH473      0.2100
     13  O4        26.5300   48.9840    4.1850 O.3   473  INH473     -0.3910
     14  H9        25.7270   48.5450    3.9320 H     473  INH473      0.2100
@<TRIPOS>BOND
     1    10     9    1
     2     8     7    1
     3     9     2    1
     4    11     3    1
     5    11    12    1
     6     7     1    1
     7     3     2    1
     8     3     4    1
     9     2     1    1
    10     1     6    1
    11     4     5    1
    12     4    13    1
    13     5     6    1
    14    14    13    1
