@<TRIPOS>MOLECULE
/tmp/ewbell/vina_2boj_2boj_lig/vina/vina3.pdbqt
 14 14 0 0 0
SMALL
GASTEIGER

@<TRIPOS>ATOM
      1  C1        30.2660   50.5980    3.6970 C.3   473  INH473      0.2900
      2  C2        29.9440   49.1950    4.2060 C.3   473  INH473      0.2040
      3  C3        28.5200   48.8380    3.7970 C.3   473  INH473      0.1820
      4  C4        28.3200   48.9120    2.2930 C.3   473  INH473      0.1730
      5  C5        28.8180   50.2330    1.7280 C.3   473  INH473      0.2050
      6  O5        30.1040   50.5910    2.2580 O.3   473  INH473     -0.3560
      7  O1        29.3660   51.5100    4.3170 O.3   473  INH473     -0.3630
      8  C6        30.0350   52.5630    5.0290 C.3   473  INH473      0.2040
      9  O2        30.0500   49.0970    5.6350 O.3   473  INH473     -0.3880
     10  H7        29.5400   49.7900    6.0380 H     473  INH473      0.2100
     11  O3        28.2560   47.4830    4.1790 O.3   473  INH473     -0.3900
     12  H8        27.3180   47.3510    4.2530 H     473  INH473      0.2100
     13  O4        29.1130   47.8750    1.7010 O.3   473  INH473     -0.3910
     14  H9        30.0240   48.1420    1.6880 H     473  INH473      0.2100
@<TRIPOS>BOND
     1    14    13    1
     2    13     4    1
     3     5     6    1
     4     5     4    1
     5     6     1    1
     6     4     3    1
     7     1     2    1
     8     1     7    1
     9     3    11    1
    10     3     2    1
    11    11    12    1
    12     2     9    1
    13     7     8    1
    14     9    10    1
