@<TRIPOS>MOLECULE
/tmp/ewbell/vina_2boj_2boj_lig/vina/vina1.pdbqt
 14 14 0 0 0
SMALL
GASTEIGER

@<TRIPOS>ATOM
      1  C1        29.1060   48.5860    1.9850 C.3   473  INH473      0.2900
      2  C2        27.9370   48.2900    2.9210 C.3   473  INH473      0.2040
      3  C3        27.3190   49.6090    3.3690 C.3   473  INH473      0.1820
      4  C4        26.8530   50.4520    2.1950 C.3   473  INH473      0.1730
      5  C5        27.9440   50.5990    1.1460 C.3   473  INH473      0.2050
      6  O5        28.5910   49.3470    0.8660 O.3   473  INH473     -0.3560
      7  O1        30.0790   49.3270    2.7130 O.3   473  INH473     -0.3630
      8  C6        31.4010   48.7730    2.6080 C.3   473  INH473      0.2040
      9  O2        28.3460   47.5550    4.0860 O.3   473  INH473     -0.3880
     10  H7        27.7570   46.8210    4.2190 H     473  INH473      0.2100
     11  O3        26.1570   49.3290    4.1600 O.3   473  INH473     -0.3900
     12  H8        25.8640   50.1270    4.5860 H     473  INH473      0.2100
     13  O4        25.7620   49.7600    1.5730 O.3   473  INH473     -0.3910
     14  H9        24.9750   50.2870    1.6390 H     473  INH473      0.2100
@<TRIPOS>BOND
     1     6     5    1
     2     6     1    1
     3     5     4    1
     4    13    14    1
     5    13     4    1
     6     1     7    1
     7     1     2    1
     8     4     3    1
     9     8     7    1
    10     2     3    1
    11     2     9    1
    12     3    11    1
    13     9    10    1
    14    11    12    1
