@<TRIPOS>MOLECULE
/tmp/ewbell/vina_2boj_2boj_lig/vina/vina2.pdbqt
 14 14 0 0 0
SMALL
GASTEIGER

@<TRIPOS>ATOM
      1  C1        28.1090   51.3160    1.7070 C.3   473  INH473      0.2900
      2  C2        27.2210   50.9910    2.9040 C.3   473  INH473      0.2040
      3  C3        26.9080   49.4990    2.8960 C.3   473  INH473      0.1820
      4  C4        28.1670   48.6500    2.9290 C.3   473  INH473      0.1730
      5  C5        29.1620   49.0850    1.8640 C.3   473  INH473      0.2050
      6  O5        29.3090   50.5140    1.8200 O.3   473  INH473     -0.3560
      7  O1        27.3860   51.0030    0.5210 O.3   473  INH473     -0.3630
      8  C6        27.2190   52.1330   -0.3500 C.3   473  INH473      0.2040
      9  O2        25.9830   51.7200    2.8760 O.3   473  INH473     -0.3880
     10  H7        25.4690   51.4990    3.6440 H     473  INH473      0.2100
     11  O3        26.1650   49.1770    4.0770 O.3   473  INH473     -0.3900
     12  H8        25.6410   49.9270    4.3360 H     473  INH473      0.2100
     13  O4        28.7950   48.8590    4.2010 O.3   473  INH473     -0.3910
     14  H9        29.7360   48.9130    4.0840 H     473  INH473      0.2100
@<TRIPOS>BOND
     1     8     7    1
     2     7     1    1
     3     1     6    1
     4     1     2    1
     5     6     5    1
     6     5     4    1
     7     9     2    1
     8     9    10    1
     9     3     2    1
    10     3     4    1
    11     3    11    1
    12     4    13    1
    13    11    12    1
    14    14    13    1
