@<TRIPOS>MOLECULE
/tmp/ewbell/vina_2boj_2boj_lig/vina/vina5.pdbqt
 14 14 0 0 0
SMALL
GASTEIGER

@<TRIPOS>ATOM
      1  C1        27.5610   51.1990    0.7840 C.3   473  INH473      0.2900
      2  C2        27.3180   49.9270    1.5920 C.3   473  INH473      0.2040
      3  C3        27.5220   50.2370    3.0700 C.3   473  INH473      0.1820
      4  C4        26.6090   51.3500    3.5540 C.3   473  INH473      0.1730
      5  C5        26.6840   52.5680    2.6450 C.3   473  INH473      0.2050
      6  O5        26.6310   52.2030    1.2570 O.3   473  INH473     -0.3560
      7  O1        28.9100   51.6020    0.9880 O.3   473  INH473     -0.3630
      8  C6        29.3350   52.6270    0.0750 C.3   473  INH473      0.2040
      9  O2        28.2110   48.8660    1.2180 O.3   473  INH473     -0.3880
     10  H7        28.1020   48.1360    1.8150 H     473  INH473      0.2100
     11  O3        27.1890   49.0720    3.8350 O.3   473  INH473     -0.3900
     12  H8        27.6650   48.3230    3.4950 H     473  INH473      0.2100
     13  O4        25.2620   50.8610    3.4920 O.3   473  INH473     -0.3910
     14  H9        24.6820   51.4770    3.9240 H     473  INH473      0.2100
@<TRIPOS>BOND
     1     8     7    1
     2     1     7    1
     3     1     6    1
     4     1     2    1
     5     9     2    1
     6     9    10    1
     7     6     5    1
     8     2     3    1
     9     5     4    1
    10     3     4    1
    11     3    11    1
    12    13     4    1
    13    13    14    1
    14    12    11    1
