@<TRIPOS>MOLECULE
./ligand/1rdi_lig.pdb
 26 26 0 0 0
SMALL
GASTEIGER

@<TRIPOS>ATOM
      1  C1         3.7250   47.9950    0.9270 C.3   232  INH232      0.1875
      2  C2         4.2030   46.8310    1.7950 C.3   232  INH232      0.1341
      3  C3         3.0170   46.0070    2.2690 C.3   232  INH232      0.1140
      4  C4         2.2300   45.5160    1.0540 C.3   232  INH232      0.1095
      5  C5         1.8170   46.7080    0.1770 C.3   232  INH232      0.0873
      6  C6         1.1410   46.2830   -1.1180 C.3   232  INH232     -0.0361
      7  O1         2.9890   48.8900    1.7130 O.3   232  INH232     -0.3520
      8  O2         4.9040   47.3240    2.9230 O.3   232  INH232     -0.3841
      9  O3         3.4980   44.8950    3.0100 O.3   232  INH232     -0.3864
     10  O4         3.0420   44.6180    0.3160 O.3   232  INH232     -0.3866
     11  O5         2.9720   47.5020   -0.1850 O.3   232  INH232     -0.3431
     12  C7         2.7480   50.1760    1.1080 C.3   232  INH232      0.0395
     13  H1         4.6050   48.5260    0.5350 H     232  INH232      0.0937
     14  H2         4.8740   46.1920    1.2010 H     232  INH232      0.0671
     15  H3         2.3660   46.6230    2.9060 H     232  INH232      0.0648
     16  H4         1.3250   44.9910    1.3940 H     232  INH232      0.0646
     17  H5         1.1170   47.3300    0.7540 H     232  INH232      0.0621
     18  H6         0.8700   47.1760   -1.7000 H     232  INH232      0.0255
     19  H7         0.2330   45.7070   -0.8860 H     232  INH232      0.0255
     20  H8         1.8310   45.6590   -1.7040 H     232  INH232      0.0255
     21  H9         5.6470   47.8400    2.6330 H     232  INH232      0.2101
     22  H10        3.9860   45.2040    3.7640 H     232  INH232      0.2100
     23  H11        3.2900   43.8870    0.8700 H     232  INH232      0.2100
     24  H12        2.1660   50.8030    1.7990 H     232  INH232      0.0525
     25  H13        2.1850   50.0420    0.1730 H     232  INH232      0.0525
     26  H14        3.7090   50.6650    0.8900 H     232  INH232      0.0525
@<TRIPOS>BOND
     1     1    13    1
     2     1    11    1
     3     1     7    1
     4     1     2    1
     5     2    14    1
     6     2     8    1
     7     2     3    1
     8     3    15    1
     9     3     9    1
    10     3     4    1
    11     4    16    1
    12     4    10    1
    13     4     5    1
    14     5    17    1
    15     5    11    1
    16     5     6    1
    17     6    20    1
    18     6    19    1
    19     6    18    1
    20     7    12    1
    21     8    21    1
    22     9    22    1
    23    10    23    1
    24    12    26    1
    25    12    25    1
    26    12    24    1
