@<TRIPOS>MOLECULE
/tmp/ewbell/vina_1rdi_1rdi_lig/vina/vina2.pdbqt
 15 15 0 0 0
SMALL
GASTEIGER

@<TRIPOS>ATOM
      1  C1        -3.3040   38.1200   11.2750 C.3   232  INH232      0.2900
      2  C2        -2.2300   39.1350   11.6670 C.3   232  INH232      0.2040
      3  C3        -1.7010   39.8450   10.4310 C.3   232  INH232      0.1830
      4  C4        -2.8660   40.5130    9.7010 C.3   232  INH232      0.1780
      5  C5        -3.9490   39.4740    9.3750 C.3   232  INH232      0.1520
      6  C6        -5.1960   40.0930    8.7610 C.3   232  INH232      0.0420
      7  O5        -4.3650   38.7740   10.5720 O.3   232  INH232     -0.3510
      8  O1        -2.7210   37.0930   10.5220 O.3   232  INH232     -0.3630
      9  C7        -3.4090   35.8280   10.5840 C.3   232  INH232      0.2040
     10  O2        -1.1570   38.4770   12.3170 O.3   232  INH232     -0.3880
     11  H9        -0.6790   39.1010   12.8500 H     232  INH232      0.2100
     12  O3        -0.7600   40.8290   10.8350 O.3   232  INH232     -0.3900
     13  H10       -0.0880   40.4240   11.3700 H     232  INH232      0.2100
     14  O4        -3.3960   41.5370   10.5260 O.3   232  INH232     -0.3900
     15  H11       -3.8730   41.1460   11.2490 H     232  INH232      0.2100
@<TRIPOS>BOND
     1     6     5    1
     2     5     4    1
     3     5     7    1
     4     4     3    1
     5     4    14    1
     6     3    12    1
     7     3     2    1
     8     8     9    1
     9     8     1    1
    10    14    15    1
    11     7     1    1
    12    12    13    1
    13     1     2    1
    14     2    10    1
    15    10    11    1
