@<TRIPOS>MOLECULE
/tmp/ewbell/vina_1rdi_1rdi_lig/vina/vina1.pdbqt
 15 15 0 0 0
SMALL
GASTEIGER

@<TRIPOS>ATOM
      1  C1        -2.5180   39.2960    9.9070 C.3   232  INH232      0.2900
      2  C2        -1.9390   39.6730   11.2710 C.3   232  INH232      0.2040
      3  C3        -2.7790   39.0690   12.3840 C.3   232  INH232      0.1830
      4  C4        -2.8410   37.5520   12.1990 C.3   232  INH232      0.1780
      5  C5        -3.3720   37.2130   10.7980 C.3   232  INH232      0.1520
      6  C6        -3.3380   35.7220   10.4970 C.3   232  INH232      0.0420
      7  O5        -2.5840   37.8730    9.7780 O.3   232  INH232     -0.3510
      8  O1        -3.7690   39.9030    9.7490 O.3   232  INH232     -0.3630
      9  C7        -3.9530   40.6000    8.5000 C.3   232  INH232      0.2040
     10  O2        -1.9220   41.0820   11.4170 O.3   232  INH232     -0.3880
     11  H9        -2.7190   41.3640   11.8500 H     232  INH232      0.2100
     12  O3        -2.1760   39.3750   13.6320 O.3   232  INH232     -0.3900
     13  H10       -2.4770   40.2260   13.9290 H     232  INH232      0.2100
     14  O4        -1.5400   37.0180   12.3760 O.3   232  INH232     -0.3900
     15  H11       -1.3290   36.9980   13.3030 H     232  INH232      0.2100
@<TRIPOS>BOND
     1     9     8    1
     2     8     1    1
     3     7     1    1
     4     7     5    1
     5     1     2    1
     6     6     5    1
     7     5     4    1
     8     2    10    1
     9     2     3    1
    10    10    11    1
    11     4    14    1
    12     4     3    1
    13    14    15    1
    14     3    12    1
    15    12    13    1
