@<TRIPOS>MOLECULE
/tmp/ewbell/vina_1rdi_1rdi_lig/vina/vina3.pdbqt
 15 15 0 0 0
SMALL
GASTEIGER

@<TRIPOS>ATOM
      1  C1        -3.4000   39.8220   12.3950 C.3   232  INH232      0.2900
      2  C2        -2.5120   40.4750   11.3360 C.3   232  INH232      0.2040
      3  C3        -1.3930   39.5300   10.9330 C.3   232  INH232      0.1830
      4  C4        -2.0000   38.2210   10.4270 C.3   232  INH232      0.1780
      5  C5        -2.9300   37.6250   11.4950 C.3   232  INH232      0.1520
      6  C6        -3.6700   36.3870   11.0100 C.3   232  INH232      0.0420
      7  O5        -3.9310   38.5890   11.8990 O.3   232  INH232     -0.3510
      8  O1        -2.6670   39.6490   13.5750 O.3   232  INH232     -0.3630
      9  C7        -3.4030   39.8930   14.7900 C.3   232  INH232      0.2040
     10  O2        -1.9470   41.6690   11.8480 O.3   232  INH232     -0.3880
     11  H9        -1.0160   41.6840   11.6600 H     232  INH232      0.2100
     12  O3        -0.6310   40.1360    9.8980 O.3   232  INH232     -0.3900
     13  H10       -0.2610   40.9510   10.2140 H     232  INH232      0.2100
     14  O4        -2.7210   38.4820    9.2350 O.3   232  INH232     -0.3900
     15  H11       -2.1970   38.2250    8.4850 H     232  INH232      0.2100
@<TRIPOS>BOND
     1    15    14    1
     2    14     4    1
     3    12    13    1
     4    12     3    1
     5     4     3    1
     6     4     5    1
     7     3     2    1
     8     6     5    1
     9     2    10    1
    10     2     1    1
    11     5     7    1
    12    11    10    1
    13     7     1    1
    14     1     8    1
    15     8     9    1
