@<TRIPOS>MOLECULE
/tmp/ewbell/vina_1rdi_1rdi_lig/vina/vina5.pdbqt
 15 15 0 0 0
SMALL
GASTEIGER

@<TRIPOS>ATOM
      1  C1        -2.1830   38.8660   11.2920 C.3   232  INH232      0.2900
      2  C2        -2.7640   39.2860    9.9420 C.3   232  INH232      0.2040
      3  C3        -4.1940   39.7740   10.1130 C.3   232  INH232      0.1830
      4  C4        -4.2130   40.9260   11.1170 C.3   232  INH232      0.1780
      5  C5        -3.5710   40.4840   12.4400 C.3   232  INH232      0.1520
      6  C6        -3.4390   41.6210   13.4430 C.3   232  INH232      0.0420
      7  O5        -2.2410   39.9590   12.2130 O.3   232  INH232     -0.3510
      8  O1        -2.8670   37.7380   11.7620 O.3   232  INH232     -0.3630
      9  C7        -2.0360   36.7390   12.3850 C.3   232  INH232      0.2040
     10  O2        -2.7540   38.1880    9.0470 O.3   232  INH232     -0.3880
     11  H9        -2.3180   37.4500    9.4570 H     232  INH232      0.2100
     12  O3        -4.6780   40.2230    8.8560 O.3   232  INH232     -0.3900
     13  H10       -4.9320   39.4760    8.3290 H     232  INH232      0.2100
     14  O4        -3.5050   42.0240   10.5660 O.3   232  INH232     -0.3900
     15  H11       -3.5220   41.9680    9.6180 H     232  INH232      0.2100
@<TRIPOS>BOND
     1    13    12    1
     2    12     3    1
     3    10    11    1
     4    10     2    1
     5    15    14    1
     6     2     3    1
     7     2     1    1
     8     3     4    1
     9    14     4    1
    10     4     5    1
    11     1     8    1
    12     1     7    1
    13     8     9    1
    14     7     5    1
    15     5     6    1
