@<TRIPOS>MOLECULE
/tmp/ewbell/vina_1rdi_1rdi_lig/vina/vina4.pdbqt
 15 15 0 0 0
SMALL
GASTEIGER

@<TRIPOS>ATOM
      1  C1        -4.4330   39.0220   10.1450 C.3   232  INH232      0.2900
      2  C2        -2.9470   38.6660   10.1990 C.3   232  INH232      0.2040
      3  C3        -2.1060   39.9310   10.2570 C.3   232  INH232      0.1830
      4  C4        -2.5290   40.7600   11.4690 C.3   232  INH232      0.1780
      5  C5        -4.0370   41.0480   11.4090 C.3   232  INH232      0.1520
      6  C6        -4.5530   41.7600   12.6510 C.3   232  INH232      0.0420
      7  O5        -4.7890   39.8180   11.2800 O.3   232  INH232     -0.3510
      8  O1        -4.7140   39.6660    8.9340 O.3   232  INH232     -0.3630
      9  C7        -6.1130   39.7360    8.5930 C.3   232  INH232      0.2040
     10  O2        -2.5860   37.9220    9.0490 O.3   232  INH232     -0.3880
     11  H9        -2.1740   37.1090    9.3150 H     232  INH232      0.2100
     12  O3        -0.7390   39.5660   10.3790 O.3   232  INH232     -0.3900
     13  H10       -0.2100   40.1330    9.8290 H     232  INH232      0.2100
     14  O4        -2.2100   40.0400   12.6480 O.3   232  INH232     -0.3900
     15  H11       -2.2700   40.6200   13.3990 H     232  INH232      0.2100
@<TRIPOS>BOND
     1     9     8    1
     2     8     1    1
     3    10    11    1
     4    10     2    1
     5    13    12    1
     6     1     2    1
     7     1     7    1
     8     2     3    1
     9     3    12    1
    10     3     4    1
    11     7     5    1
    12     5     4    1
    13     5     6    1
    14     4    14    1
    15    14    15    1
