@<TRIPOS>MOLECULE
./ligand/3ccw_lig.pdb
 67 69 0 0 0
SMALL
GASTEIGER

@<TRIPOS>ATOM
      1  N1       -14.2130    7.4770   45.5500 N.ar  1663  INH1663    -0.3265
      2  N2       -15.7600    8.5480   46.7000 N.ar  1663  INH1663    -0.2226
      3  C1       -19.3110    6.9570   48.5760 C.3   1663  INH1663     0.0372
      4  C2       -14.5490    8.6500   46.1400 C.ar  1663  INH1663     0.1418
      5  C3       -15.3620    5.2000   45.2940 C.3   1663  INH1663    -0.0039
      6  C4       -12.9650    7.2210   44.8150 C.3   1663  INH1663     0.0273
      7  C5       -13.1670    7.7950   43.4070 C.3   1663  INH1663    -0.0087
      8  C6       -12.5560    7.9950   40.9970 C.3   1663  INH1663    -0.0002
      9  C7       -14.3070    4.3850   46.0420 C.3   1663  INH1663    -0.0572
     10  C8       -11.8250   11.1370   46.9350 C.ar  1663  INH1663    -0.0258
     11  C9       -20.6090    4.9650   49.3150 C.ar  1663  INH1663    -0.0571
     12  C10      -20.7300    3.7310   49.9480 C.ar  1663  INH1663    -0.0615
     13  C11      -14.3100   11.0670   45.6570 C.ar  1663  INH1663    -0.0484
     14  C12      -13.5910   12.2590   45.7270 C.ar  1663  INH1663    -0.0258
     15  C13      -18.2710    5.0400   49.8760 C.ar  1663  INH1663    -0.0571
     16  O1       -18.1900    6.1200   46.0850 O.2   1663  INH1663    -0.2685
     17  C14      -17.4980    6.7430   46.8860 C.2   1663  INH1663     0.2645
     18  N3       -17.9750    7.1730   48.0490 N.am  1663  INH1663    -0.3059
     19  C15      -19.3870    5.6160   49.2710 C.ar  1663  INH1663    -0.0303
     20  C16      -18.3900    3.8070   50.5130 C.ar  1663  INH1663    -0.0615
     21  C17      -19.6170    3.1510   50.5480 C.ar  1663  INH1663    -0.0617
     22  C18      -16.1990    7.3140   46.4610 C.ar  1663  INH1663     0.1472
     23  C19      -15.2460    6.6210   45.7200 C.ar  1663  INH1663     0.0535
     24  C20      -15.2970    5.0090   43.7820 C.3   1663  INH1663    -0.0572
     25  C21      -13.7730    9.9080   46.2130 C.ar  1663  INH1663     0.0176
     26  C22      -12.3500   12.2960   46.3670 C.ar  1663  INH1663     0.1234
     27  F1       -11.6550   13.4490   46.4290 F     1663  INH1663    -0.2055
     28  C23      -12.5420    9.9450   46.8700 C.ar  1663  INH1663    -0.0484
     29  C24      -12.0800    7.5030   42.3610 C.3   1663  INH1663     0.0592
     30  O2       -11.8150    6.1130   42.2140 O.3   1663  INH1663    -0.3916
     31  C25      -12.6680    9.5140   40.8890 C.3   1663  INH1663     0.0678
     32  O3       -11.4080   10.0990   41.1230 O.3   1663  INH1663    -0.3912
     33  C26      -13.1250    9.8910   39.4840 C.3   1663  INH1663     0.0752
     34  C27      -13.5930   11.3300   39.4420 C.2   1663  INH1663     0.3585
     35  O4       -12.8540   12.1870   38.8910 O.co2 1663  INH1663    -0.2463
     36  O5       -14.7000   11.5990   39.9710 O.co2 1663  INH1663    -0.2463
     37  H1       -20.0360    6.9790   47.7490 H     1663  INH1663     0.0512
     38  H2       -19.5510    7.7530   49.2960 H     1663  INH1663     0.0512
     39  H3       -16.3500    4.8390   45.6140 H     1663  INH1663     0.0359
     40  H4       -12.1210    7.7210   45.3120 H     1663  INH1663     0.0493
     41  H5       -12.7700    6.1400   44.7610 H     1663  INH1663     0.0493
     42  H6       -14.1140    7.3920   43.0200 H     1663  INH1663     0.0307
     43  H7       -13.2460    8.8880   43.5050 H     1663  INH1663     0.0307
     44  H8       -11.8430    7.6460   40.2350 H     1663  INH1663     0.0315
     45  H9       -13.5470    7.5600   40.7990 H     1663  INH1663     0.0315
     46  H10      -14.3770    3.3300   45.7400 H     1663  INH1663     0.0236
     47  H11      -14.4790    4.4690   47.1250 H     1663  INH1663     0.0236
     48  H12      -13.3060    4.7700   45.7990 H     1663  INH1663     0.0236
     49  H13      -10.8590   11.1630   47.4270 H     1663  INH1663     0.0646
     50  H14      -21.4780    5.4200   48.8530 H     1663  INH1663     0.0621
     51  H15      -21.6880    3.2240   49.9730 H     1663  INH1663     0.0618
     52  H16      -15.2800   11.0420   45.1740 H     1663  INH1663     0.0625
     53  H17      -13.9970   13.1610   45.2830 H     1663  INH1663     0.0646
     54  H18      -17.3150    5.5490   49.8510 H     1663  INH1663     0.0621
     55  H19      -17.3480    7.7010   48.6220 H     1663  INH1663     0.1494
     56  H20      -17.5230    3.3570   50.9830 H     1663  INH1663     0.0618
     57  H21      -19.7050    2.1900   51.0420 H     1663  INH1663     0.0618
     58  H22      -16.0770    5.6180   43.3020 H     1663  INH1663     0.0236
     59  H23      -15.4590    3.9480   43.5390 H     1663  INH1663     0.0236
     60  H24      -14.3090    5.3230   43.4150 H     1663  INH1663     0.0236
     61  H25      -12.1450    9.0470   47.3290 H     1663  INH1663     0.0625
     62  H26      -11.1560    8.0240   42.6520 H     1663  INH1663     0.0594
     63  H27      -11.5140    5.7590   43.0420 H     1663  INH1663     0.2098
     64  H28      -13.3930    9.8840   41.6290 H     1663  INH1663     0.0599
     65  H29      -10.7850    9.7770   40.4820 H     1663  INH1663     0.2098
     66  H30      -12.2850    9.7640   38.7850 H     1663  INH1663     0.0404
     67  H31      -13.9540    9.2330   39.1850 H     1663  INH1663     0.0404
@<TRIPOS>BOND
     1    66    33    1
     2    35    34   ar
     3    67    33    1
     4    34    33    1
     5    34    36   ar
     6    33    31    1
     7    44     8    1
     8    65    32    1
     9    45     8    1
    10    31     8    1
    11    31    32    1
    12    31    64    1
    13     8    29    1
    14    30    29    1
    15    30    63    1
    16    29    62    1
    17    29     7    1
    18    42     7    1
    19    58    24    1
    20     7    43    1
    21     7     6    1
    22    60    24    1
    23    59    24    1
    24    24     5    1
    25    41     6    1
    26     6    40    1
    27     6     1    1
    28    52    13    1
    29    53    14    1
    30     5    39    1
    31     5    23    1
    32     5     9    1
    33     1    23   ar
    34     1     4   ar
    35    13    14   ar
    36    13    25   ar
    37    23    22   ar
    38    14    26   ar
    39    46     9    1
    40    48     9    1
    41     9    47    1
    42    16    17    2
    43     4    25    1
    44     4     2   ar
    45    25    28   ar
    46    26    27    1
    47    26    10   ar
    48    22     2   ar
    49    22    17    1
    50    28    10   ar
    51    28    61    1
    52    17    18   am
    53    10    49    1
    54    37     3    1
    55    18     3    1
    56    18    55    1
    57     3    19    1
    58     3    38    1
    59    50    11    1
    60    19    11   ar
    61    19    15   ar
    62    11    12   ar
    63    54    15    1
    64    15    20   ar
    65    12    51    1
    66    12    21   ar
    67    20    21   ar
    68    20    56    1
    69    21    57    1
