@<TRIPOS>MOLECULE
/tmp/ewbell/vina_3ccw_3ccw_lig/vina/vina4.pdbqt
 41 43 0 0 0
SMALL
GASTEIGER

@<TRIPOS>ATOM
      1  N1       -14.5410    8.6050   46.5320 N.pl3 1663  INH1663    -0.3330
      2  N2       -15.4600    6.7830   45.6960 N.pl3 1663  INH1663    -0.3360
      3  H2       -15.6580    5.9920   45.0850 H     1663  INH1663     0.1680
      4  C2       -14.5000    7.6990   45.5250 C.3   1663  INH1663     0.1180
      5  C18      -16.1080    7.1000   46.8160 C.2   1663  INH1663     0.1250
      6  C19      -15.5340    8.2400   47.3730 C.2   1663  INH1663     0.0490
      7  C4       -13.6230    9.7440   46.6910 C.3   1663  INH1663     0.1330
      8  C5       -14.2840   10.9340   45.9830 C.3   1663  INH1663     0.0520
      9  C24      -13.5470   11.5390   44.7790 C.3   1663  INH1663     0.1220
     10  C6       -14.1230   10.9500   43.4940 C.3   1663  INH1663     0.0640
     11  C25      -13.5540   11.5660   42.2180 C.3   1663  INH1663     0.1300
     12  C26      -14.5620   11.4090   41.0850 C.3   1663  INH1663     0.1410
     13  C27      -13.8680   10.9940   39.8050 C.2   1663  INH1663     0.1410
     14  O4       -13.4000   11.8900   39.0560 O.2   1663  INH1663    -0.6500
     15  O5       -13.8010    9.7650   39.5510 O.3   1663  INH1663    -0.7760
     16  H        -13.9120    9.1370   40.2380 H     1663  INH1663     0.1670
     17  O3       -12.3680   10.8980   41.8590 O.3   1663  INH1663    -0.3950
     18  H29      -11.9220   11.3870   41.1770 H     1663  INH1663     0.2100
     19  O2       -12.1570   11.2330   44.7710 O.3   1663  INH1663    -0.3950
     20  H27      -11.7720   11.4900   45.6000 H     1663  INH1663     0.2100
     21  C3       -16.0110    8.9190   48.6090 C.3   1663  INH1663     0.0300
     22  C20      -14.9160    9.1300   49.6500 C.3   1663  INH1663     0.0160
     23  C7       -16.7070   10.2190   48.2050 C.3   1663  INH1663     0.0160
     24  C21      -13.5790    7.6390   44.3670 C.ar  1663  INH1663     0.0080
     25  C11      -12.2170    7.8360   44.5760 C.ar  1663  INH1663     0.0180
     26  C12      -11.3390    7.7740   43.4950 C.ar  1663  INH1663     0.0430
     27  C22      -11.8210    7.4970   42.2140 C.ar  1663  INH1663     0.1160
     28  C8       -13.1840    7.2850   42.0130 C.ar  1663  INH1663     0.0430
     29  F1       -10.9720    7.4430   41.1680 F     1663  INH1663    -0.2060
     30  C23      -14.0620    7.3440   43.0920 C.ar  1663  INH1663     0.0180
     31  C14      -17.2490    6.3680   47.4110 C.2   1663  INH1663     0.2700
     32  O1       -18.3650    6.4440   46.9010 O.2   1663  INH1663    -0.2660
     33  N3       -17.0610    5.8800   48.6320 N.am  1663  INH1663    -0.3510
     34  H19      -16.1180    5.8570   48.9640 H     1663  INH1663     0.1630
     35  C1       -18.0800    5.3780   49.5370 C.3   1663  INH1663     0.1610
     36  C15      -18.7380    6.5260   50.2700 C.ar  1663  INH1663    -0.0410
     37  C9       -20.0460    6.8500   49.9500 C.ar  1663  INH1663     0.0090
     38  C10      -20.6910    7.9010   50.5940 C.ar  1663  INH1663     0.0010
     39  C17      -20.0160    8.6370   51.5620 C.ar  1663  INH1663     0.0000
     40  C16      -18.6990    8.3190   51.8800 C.ar  1663  INH1663     0.0010
     41  C13      -18.0560    7.2650   51.2360 C.ar  1663  INH1663     0.0090
@<TRIPOS>BOND
     1    14    13    2
     2    15    13    1
     3    15    16    1
     4    13    12    1
     5    12    11    1
     6    29    27    1
     7    18    17    1
     8    17    11    1
     9    28    27   ar
    10    28    30   ar
    11    27    26   ar
    12    11    10    1
    13    30    24   ar
    14    10     9    1
    15    26    25   ar
    16    24    25   ar
    17    24     4    1
    18    19     9    1
    19    19    20    1
    20     9     8    1
    21     3     2    1
    22     4     2    1
    23     4     1    1
    24     2     5    1
    25     8     7    1
    26     1     7    1
    27     1     6    1
    28     5     6    2
    29     5    31    1
    30    32    31    2
    31     6    21    1
    32    31    33   am
    33    23    21    1
    34    21    22    1
    35    33    34    1
    36    33    35    1
    37    35    36    1
    38    37    36   ar
    39    37    38   ar
    40    36    41   ar
    41    38    39   ar
    42    41    40   ar
    43    39    40   ar
