@<TRIPOS>MOLECULE
/tmp/ewbell/vina_3ccw_3ccw_lig/vina/vina1.pdbqt
 41 43 0 0 0
SMALL
GASTEIGER

@<TRIPOS>ATOM
      1  N1       -14.6610    7.4990   45.8850 N.pl3 1663  INH1663    -0.3330
      2  N2       -16.1870    8.7170   46.9100 N.pl3 1663  INH1663    -0.3360
      3  H2       -16.6610    9.5030   47.3550 H     1663  INH1663     0.1680
      4  C2       -14.9590    8.7260   46.3800 C.3   1663  INH1663     0.1180
      5  C18      -16.6750    7.4890   46.7470 C.2   1663  INH1663     0.1250
      6  C19      -15.7360    6.7040   46.0860 C.2   1663  INH1663     0.0490
      7  C4       -13.4070    7.1370   45.2070 C.3   1663  INH1663     0.1330
      8  C5       -13.6420    7.3720   43.7090 C.3   1663  INH1663     0.0520
      9  C24      -12.6570    8.2930   42.9750 C.3   1663  INH1663     0.1220
     10  C6       -13.3660    8.9380   41.7880 C.3   1663  INH1663     0.0640
     11  C25      -12.8930   10.3560   41.4750 C.3   1663  INH1663     0.1300
     12  C26      -13.7050   10.9190   40.3140 C.3   1663  INH1663     0.1410
     13  C27      -12.8560   11.0180   39.0650 C.2   1663  INH1663     0.1410
     14  O4       -12.3590   12.1340   38.7630 O.2   1663  INH1663    -0.6500
     15  O5       -12.6950    9.9750   38.3850 O.3   1663  INH1663    -0.7760
     16  H        -12.9470    9.1430   38.7350 H     1663  INH1663     0.1670
     17  O3       -11.5360   10.3290   41.1010 O.3   1663  INH1663    -0.3950
     18  H29      -11.4670   10.1800   40.1650 H     1663  INH1663     0.2100
     19  O2       -11.5390    7.5930   42.4390 O.3   1663  INH1663    -0.3950
     20  H27      -11.1500    7.0540   43.1170 H     1663  INH1663     0.2100
     21  C3       -15.9050    5.2620   45.7590 C.3   1663  INH1663     0.0300
     22  C20      -16.2960    5.0070   44.3070 C.3   1663  INH1663     0.0160
     23  C7       -14.6320    4.5220   46.1710 C.3   1663  INH1663     0.0160
     24  C21      -14.1290    9.9510   46.3850 C.ar  1663  INH1663     0.0080
     25  C11      -13.2880   10.1930   47.4680 C.ar  1663  INH1663     0.0180
     26  C12      -12.4950   11.3390   47.4810 C.ar  1663  INH1663     0.0430
     27  C22      -12.5300   12.2300   46.4050 C.ar  1663  INH1663     0.1160
     28  C8       -13.3620   11.9740   45.3160 C.ar  1663  INH1663     0.0430
     29  F1       -11.7670   13.3410   46.4220 F     1663  INH1663    -0.2060
     30  C23      -14.1520   10.8280   45.3000 C.ar  1663  INH1663     0.0180
     31  C14      -18.0100    7.0080   47.1740 C.2   1663  INH1663     0.2700
     32  O1       -18.9260    6.9260   46.3590 O.2   1663  INH1663    -0.2660
     33  N3       -18.2200    6.9470   48.4840 N.am  1663  INH1663    -0.3510
     34  H19      -17.4130    7.0230   49.0710 H     1663  INH1663     0.1630
     35  C1       -19.4980    6.7840   49.1550 C.3   1663  INH1663     0.1610
     36  C15      -19.6530    5.3600   49.6420 C.ar  1663  INH1663    -0.0410
     37  C9       -20.9300    4.8310   49.7370 C.ar  1663  INH1663     0.0090
     38  C10      -21.1230    3.5280   50.1850 C.ar  1663  INH1663     0.0010
     39  C17      -20.0260    2.7530   50.5480 C.ar  1663  INH1663     0.0000
     40  C16      -18.7430    3.2840   50.4610 C.ar  1663  INH1663     0.0010
     41  C13      -18.5520    4.5880   50.0100 C.ar  1663  INH1663     0.0090
@<TRIPOS>BOND
     1    15    16    1
     2    15    13    1
     3    14    13    2
     4    13    12    1
     5    18    17    1
     6    12    11    1
     7    17    11    1
     8    11    10    1
     9    10     9    1
    10    19     9    1
    11    19    20    1
    12     9     8    1
    13     8     7    1
    14    22    21    1
    15     7     1    1
    16    30    28   ar
    17    30    24   ar
    18    28    27   ar
    19    21     6    1
    20    21    23    1
    21     1     6    1
    22     1     4    1
    23     6     5    2
    24    32    31    2
    25     4    24    1
    26     4     2    1
    27    24    25   ar
    28    27    29    1
    29    27    26   ar
    30     5     2    1
    31     5    31    1
    32     2     3    1
    33    31    33   am
    34    25    26   ar
    35    33    34    1
    36    33    35    1
    37    35    36    1
    38    36    37   ar
    39    36    41   ar
    40    37    38   ar
    41    41    40   ar
    42    38    39   ar
    43    40    39   ar
