@<TRIPOS>MOLECULE
/tmp/ewbell/vina_3ccw_3ccw_lig/vina/vina2.pdbqt
 41 43 0 0 0
SMALL
GASTEIGER

@<TRIPOS>ATOM
      1  N1       -14.1700    7.4400   45.4710 N.pl3 1663  INH1663    -0.3330
      2  N2       -15.6960    8.3920   46.7450 N.pl3 1663  INH1663    -0.3360
      3  H2       -16.1950    9.0790   47.3110 H     1663  INH1663     0.1680
      4  C2       -14.5280    8.5750   46.1190 C.3   1663  INH1663     0.1180
      5  C18      -16.0870    7.1450   46.4900 C.2   1663  INH1663     0.1250
      6  C19      -15.1470    6.5260   45.6710 C.2   1663  INH1663     0.0490
      7  C4       -12.9570    7.2720   44.6560 C.3   1663  INH1663     0.1330
      8  C5       -13.3170    7.7490   43.2430 C.3   1663  INH1663     0.0520
      9  C24      -12.2920    7.4930   42.1280 C.3   1663  INH1663     0.1220
     10  C6       -12.9330    7.8090   40.7790 C.3   1663  INH1663     0.0640
     11  C25      -12.4440    9.1110   40.1480 C.3   1663  INH1663     0.1300
     12  C26      -13.3950   10.2440   40.5180 C.3   1663  INH1663     0.1410
     13  C27      -13.4470   11.2810   39.4170 C.2   1663  INH1663     0.1410
     14  O4       -12.4320   11.9990   39.2180 O.2   1663  INH1663    -0.6500
     15  O5       -14.5110   11.3770   38.7560 O.3   1663  INH1663    -0.7760
     16  H        -14.4970   11.7520   37.8970 H     1663  INH1663     0.1670
     17  O3       -12.4280    8.9790   38.7460 O.3   1663  INH1663    -0.3950
     18  H29      -12.2700    9.8280   38.3490 H     1663  INH1663     0.2100
     19  O2       -11.8750    6.1340   42.0620 O.3   1663  INH1663    -0.3950
     20  H27      -12.6310    5.5670   42.1470 H     1663  INH1663     0.2100
     21  C3       -15.2170    5.1150   45.2040 C.3   1663  INH1663     0.0300
     22  C20      -15.3430    4.9790   43.6900 C.3   1663  INH1663     0.0160
     23  C7       -14.0150    4.3600   45.7720 C.3   1663  INH1663     0.0160
     24  C21      -13.8130    9.8680   46.1900 C.ar  1663  INH1663     0.0080
     25  C11      -12.8350   10.0480   47.1660 C.ar  1663  INH1663     0.0180
     26  C12      -12.1490   11.2590   47.2370 C.ar  1663  INH1663     0.0430
     27  C22      -12.4270   12.2790   46.3240 C.ar  1663  INH1663     0.1160
     28  C8       -13.3950   12.0880   45.3390 C.ar  1663  INH1663     0.0430
     29  F1       -11.7670   13.4520   46.3970 F     1663  INH1663    -0.2060
     30  C23      -14.0800   10.8780   45.2640 C.ar  1663  INH1663     0.0180
     31  C14      -17.3280    6.4950   46.9710 C.2   1663  INH1663     0.2700
     32  O1       -18.3950    6.7020   46.3980 O.2   1663  INH1663    -0.2660
     33  N3       -17.2670    5.9300   48.1720 N.am  1663  INH1663    -0.3510
     34  H19      -16.3540    5.8010   48.5600 H     1663  INH1663     0.1630
     35  C1       -18.3860    5.4820   48.9810 C.3   1663  INH1663     0.1610
     36  C15      -18.9220    6.6270   49.8110 C.ar  1663  INH1663    -0.0410
     37  C9       -18.1930    7.0390   50.9150 C.ar  1663  INH1663     0.0090
     38  C10      -18.6480    8.0840   51.7120 C.ar  1663  INH1663     0.0010
     39  C17      -19.8480    8.7170   51.4030 C.ar  1663  INH1663     0.0000
     40  C16      -20.5870    8.3000   50.3000 C.ar  1663  INH1663     0.0010
     41  C13      -20.1280    7.2550   49.5020 C.ar  1663  INH1663     0.0090
@<TRIPOS>BOND
     1    16    15    1
     2    18    17    1
     3    17    11    1
     4    15    13    1
     5    14    13    2
     6    13    12    1
     7    11    12    1
     8    11    10    1
     9    10     9    1
    10    19     9    1
    11    19    20    1
    12     9     8    1
    13     8     7    1
    14    22    21    1
    15     7     1    1
    16    21     6    1
    17    21    23    1
    18    30    28   ar
    19    30    24   ar
    20    28    27   ar
    21     1     6    1
    22     1     4    1
    23     6     5    2
    24     4    24    1
    25     4     2    1
    26    24    25   ar
    27    27    29    1
    28    27    26   ar
    29    32    31    2
    30     5     2    1
    31     5    31    1
    32     2     3    1
    33    31    33   am
    34    25    26   ar
    35    33    34    1
    36    33    35    1
    37    35    36    1
    38    41    36   ar
    39    41    40   ar
    40    36    37   ar
    41    40    39   ar
    42    37    38   ar
    43    39    38   ar
