@<TRIPOS>MOLECULE
/tmp/ewbell/vina_3ccw_3ccw_lig/vina/vina3.pdbqt
 41 43 0 0 0
SMALL
GASTEIGER

@<TRIPOS>ATOM
      1  N1       -11.7960    8.5640   45.2700 N.pl3 1663  INH1663    -0.3330
      2  N2       -10.1770    9.6740   46.2740 N.pl3 1663  INH1663    -0.3360
      3  H2        -9.2590    9.9330   46.6340 H     1663  INH1663     0.1680
      4  C2       -10.4750    8.5750   45.5710 C.3   1663  INH1663     0.1180
      5  C18      -11.3050   10.3670   46.4140 C.2   1663  INH1663     0.1250
      6  C19      -12.3420    9.6950   45.7730 C.2   1663  INH1663     0.0490
      7  C4       -12.4820    7.5240   44.4880 C.3   1663  INH1663     0.1330
      8  C5       -12.7490    8.1290   43.1040 C.3   1663  INH1663     0.0520
      9  C24      -11.9530    7.5640   41.9190 C.3   1663  INH1663     0.1220
     10  C6       -12.7260    7.8220   40.6290 C.3   1663  INH1663     0.0640
     11  C25      -12.2100    9.0110   39.8210 C.3   1663  INH1663     0.1300
     12  C26      -12.7810   10.3020   40.3960 C.3   1663  INH1663     0.1410
     13  C27      -13.2750   11.2080   39.2880 C.2   1663  INH1663     0.1410
     14  O4       -12.4600   12.0030   38.7520 O.2   1663  INH1663    -0.6500
     15  O5       -14.4860   11.1240   38.9630 O.3   1663  INH1663    -0.7760
     16  H        -15.1420   11.5370   39.4890 H     1663  INH1663     0.1670
     17  O3       -12.6300    8.8900   38.4830 O.3   1663  INH1663    -0.3950
     18  H29      -13.0690    8.0560   38.3620 H     1663  INH1663     0.2100
     19  O2       -11.7700    6.1540   41.9980 O.3   1663  INH1663    -0.3950
     20  H27      -10.9890    5.9100   41.5170 H     1663  INH1663     0.2100
     21  C3       -13.7610   10.1400   45.7450 C.3   1663  INH1663     0.0300
     22  C20      -14.1760   10.7730   44.4210 C.3   1663  INH1663     0.0160
     23  C7       -14.6450    8.9570   46.1420 C.3   1663  INH1663     0.0160
     24  C21       -9.4360    7.5790   45.2270 C.ar  1663  INH1663     0.0080
     25  C11       -8.9670    6.7210   46.2190 C.ar  1663  INH1663     0.0180
     26  C12       -7.9950    5.7730   45.9040 C.ar  1663  INH1663     0.0430
     27  C22       -7.5070    5.6720   44.5990 C.ar  1663  INH1663     0.1160
     28  C8        -7.9920    6.5230   43.6070 C.ar  1663  INH1663     0.0430
     29  F1        -6.5630    4.7590   44.2980 F     1663  INH1663    -0.2060
     30  C23       -8.9650    7.4690   43.9180 C.ar  1663  INH1663     0.0180
     31  C14      -11.4640   11.6610   47.1180 C.2   1663  INH1663     0.2700
     32  O1       -11.4250   12.7150   46.4890 O.2   1663  INH1663    -0.2660
     33  N3       -11.3650   11.6240   48.4420 N.am  1663  INH1663    -0.3510
     34  H19      -11.4060   10.7190   48.8690 H     1663  INH1663     0.1630
     35  C1       -11.2030   12.7560   49.3370 C.3   1663  INH1663     0.1610
     36  C15      -10.2880   12.3900   50.4830 C.ar  1663  INH1663    -0.0410
     37  C9        -9.8520   11.0790   50.5860 C.ar  1663  INH1663     0.0090
     38  C10       -9.0130   10.6930   51.6260 C.ar  1663  INH1663     0.0010
     39  C17       -8.6140   11.6280   52.5750 C.ar  1663  INH1663     0.0000
     40  C16       -9.0560   12.9440   52.4790 C.ar  1663  INH1663     0.0010
     41  C13       -9.8940   13.3290   51.4360 C.ar  1663  INH1663     0.0090
@<TRIPOS>BOND
     1    18    17    1
     2    17    11    1
     3    14    13    2
     4    15    13    1
     5    15    16    1
     6    13    12    1
     7    11    12    1
     8    11    10    1
     9    10     9    1
    10    20    19    1
    11     9    19    1
    12     9     8    1
    13     8     7    1
    14    28    30   ar
    15    28    27   ar
    16    30    24   ar
    17    29    27    1
    18    22    21    1
    19     7     1    1
    20    27    26   ar
    21    24     4    1
    22    24    25   ar
    23     1     4    1
    24     1     6    1
    25     4     2    1
    26    21     6    1
    27    21    23    1
    28     6     5    2
    29    26    25   ar
    30     2     5    1
    31     2     3    1
    32     5    31    1
    33    32    31    2
    34    31    33   am
    35    33    34    1
    36    33    35    1
    37    35    36    1
    38    36    37   ar
    39    36    41   ar
    40    37    38   ar
    41    41    40   ar
    42    38    39   ar
    43    40    39   ar
