@<TRIPOS>MOLECULE
/tmp/ewbell/vina_3ccw_3ccw_lig/vina/vina5.pdbqt
 41 43 0 0 0
SMALL
GASTEIGER

@<TRIPOS>ATOM
      1  N1       -13.9750    9.2520   47.3650 N.pl3 1663  INH1663    -0.3330
      2  N2       -13.3370    7.4370   48.4410 N.pl3 1663  INH1663    -0.3360
      3  H2       -13.1980    6.4580   48.6920 H     1663  INH1663     0.1680
      4  C2       -13.9870    7.8970   47.3660 C.3   1663  INH1663     0.1180
      5  C18      -12.9040    8.4970   49.1200 C.2   1663  INH1663     0.1250
      6  C19      -13.2800    9.6580   48.4510 C.2   1663  INH1663     0.0490
      7  C4       -14.5720   10.1080   46.3280 C.3   1663  INH1663     0.1330
      8  C5       -13.5530   10.1720   45.1810 C.3   1663  INH1663     0.0520
      9  C24      -13.9110   11.0370   43.9650 C.3   1663  INH1663     0.1220
     10  C6       -13.7550   10.2040   42.6960 C.3   1663  INH1663     0.0640
     11  C25      -13.0070   10.9170   41.5710 C.3   1663  INH1663     0.1300
     12  C26      -13.7890   10.7750   40.2710 C.3   1663  INH1663     0.1410
     13  C27      -12.8690   10.8990   39.0760 C.2   1663  INH1663     0.1410
     14  O4       -12.3830   12.0280   38.8050 O.2   1663  INH1663    -0.6500
     15  O5       -12.6400    9.8620   38.4060 O.3   1663  INH1663    -0.7760
     16  H        -11.7630    9.6540   38.1490 H     1663  INH1663     0.1670
     17  O3       -11.7400   10.3280   41.3990 O.3   1663  INH1663    -0.3950
     18  H29      -11.0740   11.0060   41.3840 H     1663  INH1663     0.2100
     19  O2       -13.0510   12.1610   43.8130 O.3   1663  INH1663    -0.3950
     20  H27      -12.4640   12.2120   44.5580 H     1663  INH1663     0.2100
     21  C3       -13.0090   11.0430   48.9240 C.3   1663  INH1663     0.0300
     22  C20      -12.0440   11.8150   48.0300 C.3   1663  INH1663     0.0160
     23  C7       -14.3470   11.7570   49.1130 C.3   1663  INH1663     0.0160
     24  C21      -14.5950    6.9740   46.3830 C.ar  1663  INH1663     0.0080
     25  C11      -13.8010    6.4510   45.3650 C.ar  1663  INH1663     0.0180
     26  C12      -14.3610    5.5730   44.4380 C.ar  1663  INH1663     0.0430
     27  C22      -15.7050    5.2060   44.5400 C.ar  1663  INH1663     0.1160
     28  C8       -16.4910    5.7200   45.5700 C.ar  1663  INH1663     0.0430
     29  F1       -16.2470    4.3620   43.6390 F     1663  INH1663    -0.2060
     30  C23      -15.9330    6.5940   46.4990 C.ar  1663  INH1663     0.0180
     31  C14      -12.1270    8.4780   50.3810 C.2   1663  INH1663     0.2700
     32  O1       -12.7060    8.4030   51.4620 O.2   1663  INH1663    -0.2660
     33  N3       -10.8470    8.8210   50.2870 N.am  1663  INH1663    -0.3510
     34  H19      -10.4600    8.8560   49.3650 H     1663  INH1663     0.1630
     35  C1        -9.9500    9.1510   51.3810 C.3   1663  INH1663     0.1610
     36  C15       -9.9610   10.6420   51.6330 C.ar  1663  INH1663    -0.0410
     37  C9        -9.5680   11.4870   50.6080 C.ar  1663  INH1663     0.0090
     38  C10       -9.5570   12.8660   50.7940 C.ar  1663  INH1663     0.0010
     39  C17       -9.9370   13.4010   52.0210 C.ar  1663  INH1663     0.0000
     40  C16      -10.3240   12.5540   53.0550 C.ar  1663  INH1663     0.0010
     41  C13      -10.3370   11.1740   52.8660 C.ar  1663  INH1663     0.0090
@<TRIPOS>BOND
     1    16    15    1
     2    15    13    1
     3    14    13    2
     4    13    12    1
     5    12    11    1
     6    18    17    1
     7    17    11    1
     8    11    10    1
     9    10     9    1
    10    29    27    1
    11    19     9    1
    12    19    20    1
    13     9     8    1
    14    26    27   ar
    15    26    25   ar
    16    27    28   ar
    17     8     7    1
    18    25    24   ar
    19    28    30   ar
    20     7     1    1
    21    24    30   ar
    22    24     4    1
    23     1     4    1
    24     1     6    1
    25     4     2    1
    26    22    21    1
    27     2     3    1
    28     2     5    1
    29     6    21    1
    30     6     5    2
    31    21    23    1
    32     5    31    1
    33    34    33    1
    34    33    31   am
    35    33    35    1
    36    31    32    2
    37    37    38   ar
    38    37    36   ar
    39    38    39   ar
    40    35    36    1
    41    36    41   ar
    42    39    40   ar
    43    41    40   ar
