@<TRIPOS>MOLECULE
./ligand/2v8q_lig.pdb
 35 37 0 0 0
SMALL
GASTEIGER

@<TRIPOS>ATOM
      1  C1        21.6080   56.2420   55.7650 C.ar  490  INH490      0.1205
      2  C2        22.5200   55.2580   51.5100 C.ar  490  INH490      0.1004
      3  C3        21.9760   54.6370   53.5280 C.ar  490  INH490      0.1473
      4  C4        22.1320   56.1060   53.4850 C.ar  490  INH490      0.1674
      5  C5        21.6020   54.0500   54.8280 C.ar  490  INH490      0.1472
      6  C6        23.8770   58.8040   49.9160 C.3   490  INH490      0.1135
      7  C7        24.0870   57.8050   51.0380 C.3   490  INH490      0.1285
      8  C8        22.3940   58.6770   49.5890 C.3   490  INH490      0.1134
      9  C9        22.7410   57.7670   51.7360 C.3   490  INH490      0.1667
     10  C10       22.1020   57.7750   48.3850 C.3   490  INH490      0.0880
     11  N1        21.9450   56.8400   54.6120 N.ar  490  INH490     -0.2159
     12  N2        21.4420   54.9110   55.8640 N.ar  490  INH490     -0.2188
     13  N3        22.2240   54.1810   52.2830 N.ar  490  INH490     -0.2306
     14  N4        22.4730   56.3960   52.2300 N.ar  490  INH490     -0.2855
     15  N5        21.4290   52.7020   54.9770 N.pl3 490  INH490     -0.3413
     16  O1        23.7910   54.5120   47.4370 O.2   490  INH490     -0.2224
     17  O2        21.4690   54.6470   48.4270 O.3   490  INH490     -0.1145
     18  O3        21.9200   55.8320   46.2550 O.3   490  INH490     -0.1145
     19  O4        21.7630   58.1420   50.7620 O.3   490  INH490     -0.3456
     20  O5        24.1220   60.1270   50.4080 O.3   490  INH490     -0.3864
     21  H1        24.9400   60.4520   50.0510 H     490  INH490      0.2100
     22  O6        25.1510   58.1530   51.9320 O.3   490  INH490     -0.3847
     23  H2        25.9630   58.2300   51.4440 H     490  INH490      0.2101
     24  O7        22.9530   56.6270   48.3430 O.3   490  INH490     -0.2809
     25  P1        22.5060   55.2820   47.5420 P.3   490  INH490      0.5320
     26  H3        21.4650   56.8510   56.6450 H     490  INH490      0.1048
     27  H4        22.7610   55.2090   50.4580 H     490  INH490      0.1030
     28  H5        24.5360   58.6240   49.0540 H     490  INH490      0.0647
     29  H6        24.4040   56.8250   50.6530 H     490  INH490      0.0665
     30  H7        22.0070   59.6680   49.3110 H     490  INH490      0.0647
     31  H8        22.7170   58.4490   52.5990 H     490  INH490      0.0866
     32  H9        22.2580   58.3590   47.4660 H     490  INH490      0.0592
     33  H10       21.0640   57.4210   48.4740 H     490  INH490      0.0592
     34  H11       21.3870   52.2690   54.0760 H     490  INH490      0.1438
     35  H12       21.3550   52.2180   55.8600 H     490  INH490      0.1438
@<TRIPOS>BOND
     1     1    11   ar
     2     1    26    1
     3     1    12   ar
     4     2    14   ar
     5     2    27    1
     6     2    13   ar
     7     3    13   ar
     8     3     5   ar
     9     3     4   ar
    10     4    14   ar
    11     4    11   ar
    12     5    12   ar
    13     5    15    1
    14     6    28    1
    15     6    20    1
    16     6     8    1
    17     6     7    1
    18     7    29    1
    19     7    22    1
    20     7     9    1
    21     8    19    1
    22     8    30    1
    23     8    10    1
    24     9    31    1
    25     9    19    1
    26     9    14    1
    27    10    33    1
    28    10    32    1
    29    10    24    1
    30    15    35    1
    31    15    34    1
    32    16    25    2
    33    17    25    1
    34    18    25    1
    35    20    21    1
    36    22    23    1
    37    24    25    1
