@<TRIPOS>MOLECULE
/tmp/ewbell/vina_2v8q_2v8q_lig/vina/vina1.pdbqt
 32 34 0 0 0
SMALL
GASTEIGER

@<TRIPOS>ATOM
      1  C6        23.8760   57.3210   51.1530 C.3   490  INH490      0.1820
      2  C7        22.5830   57.5580   51.9100 C.3   490  INH490      0.1980
      3  C8        23.8100   58.3160   50.0010 C.3   490  INH490      0.1800
      4  C9        22.2850   59.0230   51.6540 C.3   490  INH490      0.2620
      5  O4        22.9140   59.3590   50.4140 O.3   490  INH490     -0.3530
      6  N4        20.8200   59.2250   51.5560 N.pl3 490  INH490     -0.2970
      7  C2        19.9820   59.5380   52.5640 C.3   490  INH490      0.1880
      8  N3        18.7050   59.6530   52.1170 N.pl3 490  INH490     -0.3460
      9  C3        18.7200   59.4040   50.7920 C.2   490  INH490      0.1220
     10  H3        17.8850   59.8850   52.6790 H     490  INH490      0.1670
     11  C5        17.7300   59.3520   49.7000 C.3   490  INH490      0.1310
     12  C4        20.1230   59.1100   50.4270 C.2   490  INH490      0.1420
     13  N2        18.1970   59.0450   48.4640 N.3   490  INH490     -0.3370
     14  C1        19.4910   58.7970   48.1930 C.3   490  INH490      0.1830
     15  H2        17.5270   58.9990   47.6950 H     490  INH490      0.1680
     16  N1        20.4420   58.8260   49.1390 N.pl3 490  INH490     -0.3360
     17  H1        21.4120   58.6330   48.8880 H     490  INH490      0.1680
     18  N5        16.4060   59.6030   49.9280 N.3   490  INH490     -0.3830
     19  H12       15.7020   59.7140   49.2140 H     490  INH490      0.1570
     20  H11       16.2410   59.6610   50.9140 H     490  INH490      0.1570
     21  O6        22.6670   57.2590   53.3090 O.3   490  INH490     -0.3880
     22  H2        22.0130   57.7610   53.7810 H     490  INH490      0.2100
     23  O5        24.9850   57.6680   51.9900 O.3   490  INH490     -0.3900
     24  H1        25.2220   58.5760   51.8430 H     490  INH490      0.2100
     25  C10       23.3220   57.7040   48.6830 C.3   490  INH490      0.2150
     26  O7        23.1700   56.2850   48.7640 O.3   490  INH490     -0.2940
     27  P1        22.3970   55.4570   47.5940 P.3   490  INH490      0.3900
     28  O1        21.2300   54.8580   48.3240 O.2   490  INH490     -0.6320
     29  O2        22.0260   56.5030   46.5780 O.3   490  INH490     -0.3070
     30  H         21.0900   56.7340   46.6790 H     490  INH490      0.2220
     31  O3        23.4640   54.5040   47.0910 O.3   490  INH490     -0.3070
     32  H         24.2960   54.6710   47.5620 H     490  INH490      0.2220
@<TRIPOS>BOND
     1    29    30    1
     2    29    27    1
     3    31    32    1
     4    31    27    1
     5    27    28    2
     6    27    26    1
     7    15    13    1
     8    14    13    1
     9    14    16    1
    10    13    11    1
    11    25    26    1
    12    25     3    1
    13    17    16    1
    14    16    12    1
    15    19    18    1
    16    11    18    1
    17    11     9    1
    18    18    20    1
    19     3     5    1
    20     3     1    1
    21     5     4    1
    22    12     9    2
    23    12     6    1
    24     9     8    1
    25     1     2    1
    26     1    23    1
    27     6     4    1
    28     6     7    1
    29     4     2    1
    30    24    23    1
    31     2    21    1
    32     8     7    1
    33     8    10    1
    34    21    22    1
