@<TRIPOS>MOLECULE
/tmp/ewbell/vina_2v8q_2v8q_lig/vina/vina2.pdbqt
 32 34 0 0 0
SMALL
GASTEIGER

@<TRIPOS>ATOM
      1  C6        23.7280   57.6940   50.9880 C.3   490  INH490      0.1820
      2  C7        22.5210   57.7770   51.9030 C.3   490  INH490      0.1980
      3  C8        23.3720   58.6190   49.8310 C.3   490  INH490      0.1800
      4  C9        21.9820   59.1720   51.6530 C.3   490  INH490      0.2620
      5  O4        22.3930   59.5410   50.3340 O.3   490  INH490     -0.3530
      6  N4        20.5030   59.1600   51.7440 N.pl3 490  INH490     -0.2970
      7  C2        19.6330   59.1560   50.7150 C.3   490  INH490      0.1880
      8  N3        18.3500   59.1390   51.1610 N.pl3 490  INH490     -0.3460
      9  C3        18.3950   59.1360   52.5080 C.2   490  INH490      0.1220
     10  H3        17.5090   59.1290   50.5830 H     490  INH490      0.1670
     11  C5        17.4170   59.1240   53.6120 C.3   490  INH490      0.1310
     12  C4        19.8230   59.1610   52.8900 C.2   490  INH490      0.1420
     13  N2        17.9170   59.1310   54.8730 N.3   490  INH490     -0.3370
     14  C1        19.2320   59.1440   55.1570 C.3   490  INH490      0.1830
     15  H2        17.2580   59.1270   55.6520 H     490  INH490      0.1680
     16  N1        20.1740   59.1580   54.2020 N.pl3 490  INH490     -0.3360
     17  H1        21.1610   59.1650   54.4620 H     490  INH490      0.1680
     18  N5        16.0720   59.1040   53.3710 N.3   490  INH490     -0.3830
     19  H12       15.6260   58.6410   52.5920 H     490  INH490      0.1570
     20  H11       15.5960   59.6190   54.0840 H     490  INH490      0.1570
     21  O6        22.8240   57.5530   53.2850 O.3   490  INH490     -0.3880
     22  H2        22.2890   56.8400   53.6160 H     490  INH490      0.2100
     23  O5        24.8720   58.2300   51.6640 O.3   490  INH490     -0.3900
     24  H1        24.6630   59.0910   52.0070 H     490  INH490      0.2100
     25  C10       22.8160   57.8890   48.6040 C.3   490  INH490      0.2150
     26  O7        23.1250   56.4940   48.6130 O.3   490  INH490     -0.2940
     27  P1        22.4270   55.4730   47.5530 P.3   490  INH490      0.3900
     28  O1        23.5470   54.5370   47.2030 O.2   490  INH490     -0.6320
     29  O2        21.3040   54.8400   48.3280 O.3   490  INH490     -0.3070
     30  H         21.0390   55.4280   49.0520 H     490  INH490      0.2220
     31  O3        21.9330   56.4030   46.4610 O.3   490  INH490     -0.3070
     32  H         22.2490   56.0880   45.6000 H     490  INH490      0.2220
@<TRIPOS>BOND
     1    32    31    1
     2    31    27    1
     3    28    27    2
     4    27    29    1
     5    27    26    1
     6    29    30    1
     7    25    26    1
     8    25     3    1
     9     3     5    1
    10     3     1    1
    11     5     4    1
    12    10     8    1
    13     7     8    1
    14     7     6    1
    15     1    23    1
    16     1     2    1
    17     8     9    1
    18     4     6    1
    19     4     2    1
    20    23    24    1
    21     6    12    1
    22     2    21    1
    23     9    12    2
    24     9    11    1
    25    19    18    1
    26    12    16    1
    27    21    22    1
    28    18    11    1
    29    18    20    1
    30    11    13    1
    31    16    17    1
    32    16    14    1
    33    13    14    1
    34    13    15    1
