@<TRIPOS>MOLECULE
/tmp/ewbell/vina_2v8q_2v8q_lig/vina/vina3.pdbqt
 32 34 0 0 0
SMALL
GASTEIGER

@<TRIPOS>ATOM
      1  C6        28.3610   48.8090   38.6270 C.3   490  INH490      0.1820
      2  C7        29.5290   48.7290   37.6630 C.3   490  INH490      0.1980
      3  C8        27.2740   49.5130   37.8240 C.3   490  INH490      0.1800
      4  C9        28.8630   48.6640   36.3020 C.3   490  INH490      0.2620
      5  O4        27.5880   49.2970   36.4400 O.3   490  INH490     -0.3530
      6  N4        29.6890   49.3850   35.3060 N.pl3 490  INH490     -0.2970
      7  C2        29.4770   50.6290   34.8340 C.3   490  INH490      0.1880
      8  N3        30.4340   50.9790   33.9360 N.pl3 490  INH490     -0.3460
      9  C3        31.2790   49.9340   33.8240 C.2   490  INH490      0.1220
     10  H3        30.5010   51.8670   33.4380 H     490  INH490      0.1670
     11  C5        32.4980   49.6210   33.0560 C.3   490  INH490      0.1310
     12  C4        30.7750   48.8760   34.7250 C.2   490  INH490      0.1420
     13  N2        33.0470   48.3960   33.2520 N.3   490  INH490     -0.3370
     14  C1        32.5460   47.4770   34.0970 C.3   490  INH490      0.1830
     15  H2        33.8890   48.1570   32.7270 H     490  INH490      0.1680
     16  N1        31.4390   47.6960   34.8230 N.pl3 490  INH490     -0.3360
     17  H1        31.0950   46.9710   35.4540 H     490  INH490      0.1680
     18  N5        33.0460   50.5260   32.1910 N.3   490  INH490     -0.3830
     19  H12       33.2140   50.3660   31.2080 H     490  INH490      0.1570
     20  H11       33.2570   51.3720   32.6810 H     490  INH490      0.1570
     21  O6        30.3960   47.6120   37.8950 O.3   490  INH490     -0.3880
     22  H2        30.9510   47.7920   38.6460 H     490  INH490      0.2100
     23  O5        27.9110   47.4850   38.9380 O.3   490  INH490     -0.3900
     24  H1        27.5090   47.0980   38.1700 H     490  INH490      0.2100
     25  C10       27.1730   51.0160   38.1050 C.3   490  INH490      0.2150
     26  O7        27.1360   51.3080   39.5040 O.3   490  INH490     -0.2940
     27  P1        26.6630   52.7700   40.0430 P.3   490  INH490      0.3900
     28  O1        25.3780   53.0000   39.3010 O.2   490  INH490     -0.6320
     29  O2        26.5020   52.5880   41.5270 O.3   490  INH490     -0.3070
     30  H         25.5590   52.5390   41.7460 H     490  INH490      0.2220
     31  O3        27.8390   53.6600   39.6860 O.3   490  INH490     -0.3070
     32  H         27.9250   53.7110   38.7210 H     490  INH490      0.2220
@<TRIPOS>BOND
     1    19    18    1
     2    18    20    1
     3    18    11    1
     4    15    13    1
     5    11    13    1
     6    11     9    1
     7    13    14    1
     8    10     8    1
     9     9     8    1
    10     9    12    2
    11     8     7    1
    12    14    16    1
    13    12    16    1
    14    12     6    1
    15    16    17    1
    16     7     6    1
    17     6     4    1
    18     4     5    1
    19     4     2    1
    20     5     3    1
    21     2    21    1
    22     2     1    1
    23     3    25    1
    24     3     1    1
    25    21    22    1
    26    25    26    1
    27    24    23    1
    28     1    23    1
    29    32    31    1
    30    28    27    2
    31    26    27    1
    32    31    27    1
    33    27    29    1
    34    29    30    1
