@<TRIPOS>MOLECULE
/tmp/ewbell/vina_2v8q_2v8q_lig/vina/vina4.pdbqt
 32 34 0 0 0
SMALL
GASTEIGER

@<TRIPOS>ATOM
      1  C6        23.7480   57.6850   49.9830 C.3   490  INH490      0.1820
      2  C7        23.6940   57.6480   51.4990 C.3   490  INH490      0.1980
      3  C8        22.3520   58.1450   49.5810 C.3   490  INH490      0.1800
      4  C9        22.6770   58.7190   51.8440 C.3   490  INH490      0.2620
      5  O4        21.8110   58.8440   50.7130 O.3   490  INH490     -0.3530
      6  N4        21.9030   58.3070   53.0390 N.pl3 490  INH490     -0.2970
      7  C2        21.8590   57.0760   53.5840 C.3   490  INH490      0.1880
      8  N3        21.0530   57.0550   54.6770 N.pl3 490  INH490     -0.3460
      9  C3        20.5630   58.3010   54.8360 C.2   490  INH490      0.1220
     10  H3        20.8550   56.2470   55.2670 H     490  INH490      0.1670
     11  C5        19.6560   58.9830   55.7790 C.3   490  INH490      0.1310
     12  C4        21.1210   59.1250   53.7430 C.2   490  INH490      0.1420
     13  N2        19.4220   60.3010   55.5580 N.3   490  INH490     -0.3370
     14  C1        19.9690   60.9990   54.5470 C.3   490  INH490      0.1830
     15  H2        18.7940   60.7900   56.1960 H     490  INH490      0.1680
     16  N1        20.8000   60.4410   53.6540 N.pl3 490  INH490     -0.3360
     17  H1        21.1940   61.0090   52.9040 H     490  INH490      0.1680
     18  N5        19.0830   58.3140   56.8240 N.3   490  INH490     -0.3830
     19  H12       18.8110   57.3420   56.8160 H     490  INH490      0.1570
     20  H11       18.9740   58.9360   57.6000 H     490  INH490      0.1570
     21  O6        24.9590   57.8790   52.1300 O.3   490  INH490     -0.3880
     22  H2        25.6290   57.3620   51.6960 H     490  INH490      0.2100
     23  O5        24.6910   58.6800   49.5680 O.3   490  INH490     -0.3900
     24  H1        24.2360   59.4950   49.3910 H     490  INH490      0.2100
     25  C10       21.4150   57.0000   49.1820 C.3   490  INH490      0.2150
     26  O7        22.1250   55.8020   48.8590 O.3   490  INH490     -0.2940
     27  P1        22.2690   55.3020   47.3170 P.3   490  INH490      0.3900
     28  O1        23.6350   54.6790   47.2930 O.2   490  INH490     -0.6320
     29  O2        21.1370   54.3290   47.1310 O.3   490  INH490     -0.3070
     30  H         20.3310   54.6900   47.5320 H     490  INH490      0.2220
     31  O3        22.0760   56.5820   46.5260 O.3   490  INH490     -0.3070
     32  H         21.2620   56.5190   46.0010 H     490  INH490      0.2220
@<TRIPOS>BOND
     1    32    31    1
     2    31    27    1
     3    29    27    1
     4    29    30    1
     5    28    27    2
     6    27    26    1
     7    26    25    1
     8    25     3    1
     9    24    23    1
    10    23     1    1
    11     3     1    1
    12     3     5    1
    13     1     2    1
    14     5     4    1
    15     2     4    1
    16     2    21    1
    17    22    21    1
    18     4     6    1
    19    17    16    1
    20     6     7    1
    21     6    12    1
    22     7     8    1
    23    16    12    1
    24    16    14    1
    25    12     9    2
    26    14    13    1
    27     8     9    1
    28     8    10    1
    29     9    11    1
    30    13    11    1
    31    13    15    1
    32    11    18    1
    33    19    18    1
    34    18    20    1
