@<TRIPOS>MOLECULE
/tmp/ewbell/vina_2v8q_2v8q_lig/vina/vina5.pdbqt
 32 34 0 0 0
SMALL
GASTEIGER

@<TRIPOS>ATOM
      1  C6        23.4630   57.9150   51.3670 C.3   490  INH490      0.1820
      2  C7        22.4940   58.1790   52.5040 C.3   490  INH490      0.1980
      3  C8        22.7320   58.4370   50.1370 C.3   490  INH490      0.1800
      4  C9        21.7260   59.4020   52.0390 C.3   490  INH490      0.2620
      5  O4        21.7750   59.3970   50.6090 O.3   490  INH490     -0.3530
      6  N4        20.3220   59.3170   52.5040 N.pl3 490  INH490     -0.2970
      7  C2        19.8700   58.6390   53.5770 C.3   490  INH490      0.1880
      8  N3        18.5260   58.7830   53.7130 N.pl3 490  INH490     -0.3460
      9  C3        18.1030   59.5680   52.7010 C.2   490  INH490      0.1220
     10  H3        17.9440   58.3730   54.4450 H     490  INH490      0.1670
     11  C5        16.8150   60.1180   52.2390 C.3   490  INH490      0.1310
     12  C4        19.2950   59.9100   51.8970 C.2   490  INH490      0.1420
     13  N2        16.8440   60.8900   51.1240 N.3   490  INH490     -0.3370
     14  C1        17.9660   61.1740   50.4390 C.3   490  INH490      0.1830
     15  H2        15.9630   61.2760   50.7840 H     490  INH490      0.1680
     16  N1        19.1700   60.7050   50.8030 N.pl3 490  INH490     -0.3360
     17  H1        19.9950   60.9480   50.2550 H     490  INH490      0.1680
     18  N5        15.6510   59.8610   52.9070 N.3   490  INH490     -0.3830
     19  H12       14.7610   59.6630   52.4740 H     490  INH490      0.1570
     20  H11       15.8160   59.8990   53.8940 H     490  INH490      0.1570
     21  O6        23.1300   58.3880   53.7700 O.3   490  INH490     -0.3880
     22  H2        22.5150   58.7950   54.3700 H     490  INH490      0.2100
     23  O5        24.6450   58.7010   51.5610 O.3   490  INH490     -0.3900
     24  H1        24.4020   59.5880   51.7960 H     490  INH490      0.2100
     25  C10       22.0180   57.3450   49.3320 C.3   490  INH490      0.2150
     26  O7        22.9220   56.5710   48.5420 O.3   490  INH490     -0.2940
     27  P1        22.3740   55.4330   47.5140 P.3   490  INH490      0.3900
     28  O1        21.2610   54.7900   48.2900 O.2   490  INH490     -0.6320
     29  O2        21.9250   56.2070   46.3050 O.3   490  INH490     -0.3070
     30  H         21.0520   56.5930   46.4740 H     490  INH490      0.2220
     31  O3        23.6090   54.5930   47.2470 O.3   490  INH490     -0.3070
     32  H         23.5320   54.1720   46.3760 H     490  INH490      0.2220
@<TRIPOS>BOND
     1    29    30    1
     2    29    27    1
     3    32    31    1
     4    31    27    1
     5    27    28    2
     6    27    26    1
     7    26    25    1
     8    25     3    1
     9     3     5    1
    10     3     1    1
    11    17    16    1
    12    14    16    1
    13    14    13    1
    14     5     4    1
    15    15    13    1
    16    16    12    1
    17    13    11    1
    18     1    23    1
    19     1     2    1
    20    23    24    1
    21    12     6    1
    22    12     9    2
    23     4     6    1
    24     4     2    1
    25    11     9    1
    26    11    18    1
    27    19    18    1
    28     6     7    1
    29     2    21    1
    30     9     8    1
    31    18    20    1
    32     7     8    1
    33     8    10    1
    34    21    22    1
