@<TRIPOS>MOLECULE
./ligand/2uy4_lig.pdb
 19 19 0 0 0
SMALL
GASTEIGER

@<TRIPOS>ATOM
      1  C1        38.1430   20.2690   22.3930 C.ar  288  INH288      0.2556
      2  C2        38.2450   20.9340   24.6690 C.ar  288  INH288      0.1893
      3  C3        38.7520   22.7650   26.0550 C.2   288  INH288      0.2156
      4  C4        38.8830   23.1260   27.5120 C.3   288  INH288      0.0125
      5  N1        36.5850   20.1440   20.2020 N.3   288  INH288     -0.2015
      6  N2        37.9070   19.6430   24.4510 N.ar  288  INH288     -0.1239
      7  N3        37.8560   19.2870   23.2430 N.ar  288  INH288     -0.1190
      8  N4        38.3900   21.5060   25.8640 N.am  288  INH288     -0.2635
      9  O1        38.7910   18.8180   20.2920 O.2   288  INH288     -0.1512
     10  O2        38.8970   21.2590   20.0970 O.2   288  INH288     -0.1512
     11  O3        38.9690   23.6020   25.1840 O.2   288  INH288     -0.2757
     12  S1        38.1430   20.1190   20.6910 S.O2  288  INH288      0.0815
     13  S2        38.5130   21.7020   23.2090 S.2   288  INH288     -0.0105
     14  H1        39.1850   24.1800   27.6030 H     288  INH288      0.0323
     15  H2        39.6440   22.4850   27.9820 H     288  INH288      0.0323
     16  H3        37.9160   22.9770   28.0150 H     288  INH288      0.0323
     17  H4        36.3580   20.0660   19.2000 H     288  INH288      0.1443
     18  H5        35.8290   20.2380   20.8950 H     288  INH288      0.1443
     19  H6        38.2130   20.9450   26.6730 H     288  INH288      0.1568
@<TRIPOS>BOND
     1     1     7   ar
     2     1    13   ar
     3     1    12    1
     4     2     8    1
     5     2    13   ar
     6     2     6   ar
     7     3    11    2
     8     3     8   am
     9     3     4    1
    10     4    16    1
    11     4    15    1
    12     4    14    1
    13     5    12    1
    14     5    18    1
    15     5    17    1
    16     6     7   ar
    17     8    19    1
    18     9    12    2
    19    10    12    2
