@<TRIPOS>MOLECULE
/tmp/ewbell/vina_2uy4_2uy4_lig/vina/vina2.pdbqt
 18 18 0 0 0
SMALL
GASTEIGER

@<TRIPOS>ATOM
      1  C1        27.2620   27.1250   27.1930 C.3   288  INH288      0.2080
      2  C2        26.5660   27.5150   24.9580 C.3   288  INH288      0.1680
      3  N2        27.9020   27.4320   25.1490 N.3   288  INH288     -0.2780
      4  H2        28.5680   27.5330   24.3830 H     288  INH288      0.1890
      5  N3        28.2740   27.2200   26.3350 N.3   288  INH288     -0.2810
      6  H3        29.2530   27.1320   26.6090 H     288  INH288      0.1880
      7  S2        25.7730   27.2960   26.4130 S.3   288  INH288     -0.0200
      8  S1        27.4290   26.8610   28.8730 S.O2  288  INH288      0.2800
      9  O1        27.7280   25.4080   29.1370 O.2   288  INH288     -0.1990
     10  O2        26.1620   27.2460   29.5590 O.2   288  INH288     -0.1990
     11  N1        28.6670   27.7920   29.3900 N.3   288  INH288     -0.3230
     12  H5        28.4870   28.5820   30.0270 H     288  INH288      0.1690
     13  H4        29.6280   27.5900   29.0790 H     288  INH288      0.1690
     14  N4        25.9610   27.6980   23.7850 N.am  288  INH288     -0.3060
     15  C3        25.5930   28.8760   23.3060 C.2   288  INH288      0.2190
     16  O3        25.0240   29.0840   22.2380 O.2   288  INH288     -0.2740
     17  C4        25.9390   30.0200   24.2230 C.3   288  INH288      0.1170
     18  H6        25.7720   26.8900   23.2280 H     288  INH288      0.1710
@<TRIPOS>BOND
     1    16    15    2
     2    18    14    1
     3    15    14   am
     4    15    17    1
     5    14     2    1
     6     4     3    1
     7     2     3    1
     8     2     7    1
     9     3     5    1
    10     5     6    1
    11     5     1    1
    12     7     1    1
    13     1     8    1
    14     8     9    2
    15     8    11    1
    16     8    10    2
    17    13    11    1
    18    11    12    1
