@<TRIPOS>MOLECULE
/tmp/ewbell/vina_2uy4_2uy4_lig/vina/vina1.pdbqt
 18 18 0 0 0
SMALL
GASTEIGER

@<TRIPOS>ATOM
      1  C1        36.7110   22.9530   21.2940 C.3   288  INH288      0.2080
      2  C2        37.3050   23.1900   23.5790 C.3   288  INH288      0.1680
      3  N2        36.0280   22.8140   23.3430 N.3   288  INH288     -0.2780
      4  H2        35.3630   22.6460   24.0970 H     288  INH288      0.1890
      5  N3        35.7120   22.6840   22.1300 N.3   288  INH288     -0.2810
      6  H3        34.7820   22.4010   21.8200 H     288  INH288      0.1880
      7  S2        38.1190   23.3700   22.1300 S.3   288  INH288     -0.0200
      8  S1        36.6030   22.8910   19.5900 S.O2  288  INH288      0.2800
      9  O1        35.3220   23.5420   19.1340 O.2   288  INH288     -0.1990
     10  O2        36.6280   21.4680   19.1480 O.2   288  INH288     -0.1990
     11  N1        37.8880   23.7010   18.9920 N.3   288  INH288     -0.3230
     12  H5        38.0380   23.7510   17.9750 H     288  INH288      0.1690
     13  H4        38.5500   24.1640   19.6330 H     288  INH288      0.1690
     14  N4        37.8560   23.3510   24.7820 N.am  288  INH288     -0.3060
     15  C3        38.3940   22.3760   25.4980 C.2   288  INH288      0.2190
     16  O3        38.8990   22.4820   26.6120 O.2   288  INH288     -0.2740
     17  C4        38.3390   21.0380   24.8080 C.3   288  INH288      0.1170
     18  H6        37.8620   24.2720   25.1710 H     288  INH288      0.1710
@<TRIPOS>BOND
     1    12    11    1
     2    11     8    1
     3    11    13    1
     4     9     8    2
     5    10     8    2
     6     8     1    1
     7     1     7    1
     8     1     5    1
     9     6     5    1
    10     7     2    1
    11     5     3    1
    12     3     2    1
    13     3     4    1
    14     2    14    1
    15    14    18    1
    16    14    15   am
    17    17    15    1
    18    15    16    2
