@<TRIPOS>MOLECULE
/tmp/ewbell/vina_2uy4_2uy4_lig/vina/vina3.pdbqt
 18 18 0 0 0
SMALL
GASTEIGER

@<TRIPOS>ATOM
      1  C1        34.9400   23.2320   22.8630 C.3   288  INH288      0.2080
      2  C2        36.7480   21.8670   22.1560 C.3   288  INH288      0.1680
      3  N2        36.8350   22.3470   23.4170 N.3   288  INH288     -0.2780
      4  H2        37.6290   22.1380   24.0230 H     288  INH288      0.1890
      5  N3        35.8740   23.0690   23.7960 N.3   288  INH288     -0.2810
      6  H3        35.8190   23.4870   24.7250 H     288  INH288      0.1880
      7  S2        35.3270   22.3910   21.4490 S.3   288  INH288     -0.0200
      8  S1        33.5230   24.1680   23.0530 S.O2  288  INH288      0.2800
      9  O1        32.5060   23.3990   23.8570 O.2   288  INH288     -0.1990
     10  O2        32.9630   24.4900   21.7100 O.2   288  INH288     -0.1990
     11  N1        33.9460   25.5330   23.8420 N.3   288  INH288     -0.3230
     12  H5        33.3280   26.3570   23.8140 H     288  INH288      0.1690
     13  H4        34.8310   25.5720   24.3680 H     288  INH288      0.1690
     14  N4        37.6330   21.0600   21.5700 N.am  288  INH288     -0.3060
     15  C3        38.5000   21.4420   20.6460 C.2   288  INH288      0.2190
     16  O3        39.3200   20.7280   20.0760 O.2   288  INH288     -0.2740
     17  C4        38.4020   22.9090   20.3150 C.3   288  INH288      0.1170
     18  H6        37.6420   20.1000   21.8490 H     288  INH288      0.1710
@<TRIPOS>BOND
     1    16    15    2
     2    17    15    1
     3    15    14   am
     4     7     2    1
     5     7     1    1
     6    14    18    1
     7    14     2    1
     8    10     8    2
     9     2     3    1
    10     1     8    1
    11     1     5    1
    12     8    11    1
    13     8     9    2
    14     3     5    1
    15     3     4    1
    16     5     6    1
    17    12    11    1
    18    11    13    1
