@<TRIPOS>MOLECULE
/tmp/ewbell/vina_2uy4_2uy4_lig/vina/vina5.pdbqt
 18 18 0 0 0
SMALL
GASTEIGER

@<TRIPOS>ATOM
      1  C1        36.2830   22.7710   23.3640 C.3   288  INH288      0.2080
      2  C2        34.2480   23.3230   22.2740 C.3   288  INH288      0.1680
      3  N2        34.3410   23.7040   23.5680 N.3   288  INH288     -0.2780
      4  H2        33.5840   24.1940   24.0450 H     288  INH288      0.1890
      5  N3        35.4220   23.4150   24.1480 N.3   288  INH288     -0.2810
      6  H3        35.6170   23.6520   25.1210 H     288  INH288      0.1880
      7  S2        35.6580   22.5570   21.8090 S.3   288  INH288     -0.0200
      8  S1        37.8260   22.2230   23.8520 S.O2  288  INH288      0.2800
      9  O1        38.6760   23.3940   24.2720 O.2   288  INH288     -0.1990
     10  O2        38.4760   21.5110   22.7150 O.2   288  INH288     -0.1990
     11  N1        37.6050   21.2090   25.1120 N.3   288  INH288     -0.3230
     12  H5        37.3260   20.2320   24.9450 H     288  INH288      0.1690
     13  H4        37.7440   21.5460   26.0760 H     288  INH288      0.1690
     14  N4        33.2120   23.5580   21.4690 N.am  288  INH288     -0.3060
     15  C3        32.1260   22.8030   21.4040 C.2   288  INH288      0.2190
     16  O3        31.1590   22.9790   20.6690 O.2   288  INH288     -0.2740
     17  C4        32.1630   21.6330   22.3520 C.3   288  INH288      0.1170
     18  H6        33.2580   24.3600   20.8740 H     288  INH288      0.1710
@<TRIPOS>BOND
     1    16    15    2
     2    18    14    1
     3    15    14   am
     4    15    17    1
     5    14     2    1
     6     7     2    1
     7     7     1    1
     8     2     3    1
     9    10     8    2
    10     1     8    1
    11     1     5    1
    12     3     4    1
    13     3     5    1
    14     8     9    2
    15     8    11    1
    16     5     6    1
    17    12    11    1
    18    11    13    1
