@<TRIPOS>MOLECULE
/tmp/ewbell/vina_2uy4_2uy4_lig/vina/vina4.pdbqt
 18 18 0 0 0
SMALL
GASTEIGER

@<TRIPOS>ATOM
      1  C1        38.3880   14.5520   22.1900 C.3   288  INH288      0.2080
      2  C2        39.1350   16.5300   21.1100 C.3   288  INH288      0.1680
      3  N2        39.2070   15.3980   20.3740 N.3   288  INH288     -0.2780
      4  H2        39.5610   15.3940   19.4180 H     288  INH288      0.1890
      5  N3        38.8070   14.3470   20.9450 N.3   288  INH288     -0.2810
      6  H3        38.8050   13.4310   20.4960 H     288  INH288      0.1880
      7  S2        38.5030   16.1830   22.6180 S.3   288  INH288     -0.0200
      8  S1        37.8050   13.3350   23.2380 S.O2  288  INH288      0.2800
      9  O1        38.9450   12.4590   23.6900 O.2   288  INH288     -0.1990
     10  O2        36.7920   12.5120   22.5180 O.2   288  INH288     -0.1990
     11  N1        37.1290   14.0840   24.5220 N.3   288  INH288     -0.3230
     12  H5        36.1810   14.4800   24.4470 H     288  INH288      0.1690
     13  H4        37.6500   14.1600   25.4080 H     288  INH288      0.1690
     14  N4        39.4710   17.7490   20.6910 N.am  288  INH288     -0.3060
     15  C3        38.6350   18.6050   20.1240 C.2   288  INH288      0.2190
     16  O3        38.9090   19.7300   19.7140 O.2   288  INH288     -0.2740
     17  C4        37.2330   18.0670   20.0010 C.3   288  INH288      0.1170
     18  H6        40.4200   18.0380   20.8150 H     288  INH288      0.1710
@<TRIPOS>BOND
     1     4     3    1
     2    16    15    2
     3    17    15    1
     4    15    14   am
     5     3     5    1
     6     3     2    1
     7     6     5    1
     8    14    18    1
     9    14     2    1
    10     5     1    1
    11     2     7    1
    12     1     7    1
    13     1     8    1
    14    10     8    2
    15     8     9    2
    16     8    11    1
    17    12    11    1
    18    11    13    1
