@<TRIPOS>MOLECULE
./ligand/2b07_lig.pdb
 59 63 0 0 0
SMALL
GASTEIGER

@<TRIPOS>ATOM
      1  S1        44.3620   14.1180    0.5200 S.2   300  INH300     -0.0768
      2  C1        44.6830   15.3340    1.6850 C.ar  300  INH300      0.1436
      3  C2        45.5910   14.9690    2.6490 C.ar  300  INH300      0.1568
      4  C3        46.0140   13.6290    2.4370 C.ar  300  INH300      0.0700
      5  C4        45.4390   13.0490    1.3430 C.ar  300  INH300      0.0385
      6  C5        43.9670   16.7160    1.5230 C.2   300  INH300      0.3966
      7  O1        44.0370   17.5620    2.4670 O.co2 300  INH300     -0.2399
      8  O2        43.3800   16.8410    0.4120 O.co2 300  INH300     -0.2399
      9  O3        46.0220   15.7410    3.6790 O.3   300  INH300     -0.4781
     10  C6        47.2680   16.4150    3.4510 C.3   300  INH300      0.1902
     11  C7        47.5720   17.1990    4.7270 C.2   300  INH300      0.3927
     12  O4        46.6960   17.1600    5.6320 O.co2 300  INH300     -0.2425
     13  O5        48.6730   17.7860    4.7440 O.co2 300  INH300     -0.2425
     14  S2        47.1170   12.5550    3.2310 S.2   300  INH300     -0.0839
     15  C8        46.7620   11.3250    2.0640 C.ar  300  INH300      0.0228
     16  C9        45.8400   11.7110    1.0930 C.ar  300  INH300      0.0038
     17  C10       47.3100   10.0270    2.0140 C.ar  300  INH300     -0.0265
     18  C11       46.9340    9.1100    1.0050 C.ar  300  INH300      0.0284
     19  C12       46.0130    9.5230    0.0360 C.ar  300  INH300     -0.0402
     20  C13       45.4590   10.8140    0.0650 C.ar  300  INH300     -0.0507
     21  N1        47.5160    7.8510    1.0300 N.pl3 300  INH300     -0.3409
     22  C14       48.5720    7.4510    1.9440 C.3   300  INH300      0.0231
     23  C15       47.9410    6.9520    3.2650 C.3   300  INH300     -0.0201
     24  C16       49.0190    6.4840    4.2370 C.3   300  INH300      0.0218
     25  N2        49.8400    5.4300    3.5400 N.3   300  INH300     -0.1807
     26  C17       50.5370    5.9320    2.2970 C.3   300  INH300      0.0218
     27  C18       49.4680    6.3810    1.3030 C.3   300  INH300     -0.0201
     28  S3        50.6720    4.2940    4.5480 S.O2  300  INH300      0.0359
     29  C19       49.6580    2.8300    4.3100 C.3   300  INH300      0.1069
     30  C20       49.3150    2.6740    2.8490 C.ar  300  INH300     -0.0250
     31  C21       48.0250    2.9940    2.3820 C.ar  300  INH300     -0.0570
     32  C22       47.6950    2.8550    1.0240 C.ar  300  INH300     -0.0615
     33  C23       48.6570    2.3980    0.1190 C.ar  300  INH300     -0.0617
     34  C24       49.9480    2.0760    0.5670 C.ar  300  INH300     -0.0615
     35  C25       50.2760    2.2120    1.9250 C.ar  300  INH300     -0.0570
     36  O6        50.5680    4.7260    5.9280 O.2   300  INH300     -0.1577
     37  O7        51.9810    4.0690    3.9540 O.2   300  INH300     -0.1577
     38  H1        47.1790   17.1000    2.5950 H     300  INH300      0.0817
     39  H2        48.0660   15.6840    3.2540 H     300  INH300      0.0817
     40  H3        48.0330    9.7260    2.7630 H     300  INH300      0.0647
     41  H4        45.7220    8.8360   -0.7500 H     300  INH300      0.0636
     42  H5        44.7470   11.1210   -0.6920 H     300  INH300      0.0625
     43  H6        47.1760    7.1520    0.3540 H     300  INH300      0.1463
     44  H7        49.1950    8.3300    2.1670 H     300  INH300      0.0498
     45  H8        47.2630    6.1130    3.0470 H     300  INH300      0.0296
     46  H9        47.3720    7.7730    3.7260 H     300  INH300      0.0296
     47  H10       48.5520    6.0600    5.1380 H     300  INH300      0.0444
     48  H11       49.6610    7.3310    4.5210 H     300  INH300      0.0444
     49  H12       51.1410    5.1250    1.8560 H     300  INH300      0.0444
     50  H13       51.1890    6.7800    2.5520 H     300  INH300      0.0444
     51  H14       49.9540    6.8000    0.4100 H     300  INH300      0.0296
     52  H15       48.8530    5.5160    1.0140 H     300  INH300      0.0296
     53  H16       48.7310    2.9300    4.8930 H     300  INH300      0.0565
     54  H17       50.2120    1.9430    4.6510 H     300  INH300      0.0565
     55  H18       47.2770    3.3520    3.0800 H     300  INH300      0.0621
     56  H19       46.6970    3.1010    0.6790 H     300  INH300      0.0618
     57  H20       48.4060    2.2920   -0.9300 H     300  INH300      0.0618
     58  H21       50.6930    1.7220   -0.1370 H     300  INH300      0.0618
     59  H22       51.2740    1.9610    2.2660 H     300  INH300      0.0621
@<TRIPOS>BOND
     1     1     5   ar
     2     1     2   ar
     3     2     6    1
     4     2     3   ar
     5     3     9    1
     6     3     4   ar
     7     4    14   ar
     8     4     5   ar
     9     5    16   ar
    10     6     8   ar
    11     6     7   ar
    12     9    10    1
    13    10    39    1
    14    10    38    1
    15    10    11    1
    16    11    13   ar
    17    11    12   ar
    18    14    15   ar
    19    15    16   ar
    20    15    17   ar
    21    16    20   ar
    22    17    40    1
    23    17    18   ar
    24    18    21    1
    25    18    19   ar
    26    19    41    1
    27    19    20   ar
    28    20    42    1
    29    21    43    1
    30    21    22    1
    31    22    44    1
    32    22    27    1
    33    22    23    1
    34    23    46    1
    35    23    45    1
    36    23    24    1
    37    24    48    1
    38    24    47    1
    39    24    25    1
    40    25    28    1
    41    25    26    1
    42    26    50    1
    43    26    49    1
    44    26    27    1
    45    27    52    1
    46    27    51    1
    47    28    37    2
    48    28    36    2
    49    28    29    1
    50    29    54    1
    51    29    53    1
    52    29    30    1
    53    30    35   ar
    54    30    31   ar
    55    31    55    1
    56    31    32   ar
    57    32    56    1
    58    32    33   ar
    59    33    57    1
    60    33    34   ar
    61    34    58    1
    62    34    35   ar
    63    35    59    1
