@<TRIPOS>MOLECULE
/tmp/ewbell/vina_2b07_2b07_lig/vina/vina4.pdbqt
 40 44 0 0 0
SMALL
GASTEIGER

@<TRIPOS>ATOM
      1  S1        48.7650    5.3500    2.3720 S.2   300  INH300     -0.0790
      2  C1        49.7480    5.8810    3.6740 C.ar  300  INH300      0.1140
      3  C2        49.9890    4.9220    4.6280 C.ar  300  INH300      0.1110
      4  C3        49.3150    3.7180    4.2900 C.ar  300  INH300      0.0580
      5  C4        48.6200    3.8000    3.1170 C.ar  300  INH300      0.0370
      6  S2        49.1870    2.1460    5.0060 S.2   300  INH300     -0.0850
      7  C8        48.1730    1.6310    3.7000 C.ar  300  INH300      0.0190
      8  C9        47.9370    2.6150    2.7400 C.ar  300  INH300     -0.0000
      9  C10       47.5960    0.3560    3.5310 C.ar  300  INH300      0.0490
     10  C11       46.7800    0.0600    2.4140 C.ar  300  INH300      0.0290
     11  C12       46.5660    1.0600    1.4600 C.ar  300  INH300      0.0300
     12  C13       47.1350    2.3370    1.6060 C.ar  300  INH300      0.0160
     13  N1        46.2470   -1.2170    2.3260 N.pl3 300  INH300     -0.3850
     14  H6        46.4640   -1.7700    1.4840 H     300  INH300      0.1600
     15  C14       45.4050   -1.8290    3.3400 C.3   300  INH300      0.0840
     16  C18       46.1480   -2.9720    4.0460 C.3   300  INH300      0.0450
     17  C17       45.2300   -3.6390    5.0670 C.3   300  INH300      0.1370
     18  N2        43.9930   -4.1180    4.3430 N.3   300  INH300     -0.3100
     19  C16       43.1980   -3.0050    3.7100 C.3   300  INH300      0.1370
     20  C15       44.0930   -2.3190    2.6840 C.3   300  INH300      0.0450
     21  S3        43.0940   -5.4290    5.0290 S.O2  300  INH300      0.2320
     22  O7        44.0490   -6.4680    5.3820 O.2   300  INH300     -0.2050
     23  O6        42.1890   -4.9040    6.0330 O.2   300  INH300     -0.2050
     24  C19       42.1430   -5.9650    3.6010 C.3   300  INH300      0.2010
     25  C20       40.8680   -6.6340    4.0540 C.ar  300  INH300     -0.0430
     26  C25       39.6570   -5.9150    4.1210 C.ar  300  INH300      0.0080
     27  C24       38.4790   -6.5470    4.5500 C.ar  300  INH300      0.0010
     28  C23       38.4990   -7.9020    4.9130 C.ar  300  INH300      0.0000
     29  C22       39.6920   -8.6270    4.8490 C.ar  300  INH300      0.0010
     30  C21       40.8710   -7.9940    4.4240 C.ar  300  INH300      0.0080
     31  O3        50.7340    5.0790    5.7520 O.3   300  INH300     -0.3380
     32  C6        51.9080    4.2560    5.8190 C.3   300  INH300      0.2850
     33  C7        51.9670    3.7070    7.2440 C.2   300  INH300      0.1640
     34  O5        51.8030    4.5510    8.1480 O.2   300  INH300     -0.6480
     35  O4        52.1930    2.4730    7.3610 O.3   300  INH300     -0.7750
     36  H         52.8750    2.1730    7.9280 H     300  INH300      0.1670
     37  C5        50.2950    7.3460    3.6340 C.2   300  INH300      0.1860
     38  O2        49.4920    8.1580    3.0950 O.2   300  INH300     -0.6460
     39  O1        51.4460    7.5890    4.1120 O.3   300  INH300     -0.7720
     40  H         52.1970    7.5790    3.5520 H     300  INH300      0.1670
@<TRIPOS>BOND
     1    11    12   ar
     2    11    10   ar
     3    14    13    1
     4    12     8   ar
     5    13    10    1
     6    13    15    1
     7     1     5   ar
     8     1     2   ar
     9    10     9   ar
    10    20    15    1
    11    20    19    1
    12     8     5   ar
    13     8     7   ar
    14    38    37    2
    15     5     4   ar
    16    15    16    1
    17     9     7   ar
    18    40    39    1
    19    24    25    1
    20    24    21    1
    21    37     2    1
    22    37    39    1
    23     2     3   ar
    24     7     6   ar
    25    19    18    1
    26    16    17    1
    27    25    26   ar
    28    25    30   ar
    29    26    27   ar
    30     4     3   ar
    31     4     6   ar
    32    18    21    1
    33    18    17    1
    34    30    29   ar
    35    27    28   ar
    36     3    31    1
    37    29    28   ar
    38    21    22    2
    39    21    23    2
    40    31    32    1
    41    32    33    1
    42    33    35    1
    43    33    34    2
    44    35    36    1
