@<TRIPOS>MOLECULE
/tmp/ewbell/vina_2b07_2b07_lig/vina/vina5.pdbqt
 40 44 0 0 0
SMALL
GASTEIGER

@<TRIPOS>ATOM
      1  S1        49.9270    5.4810    2.7230 S.2   300  INH300     -0.0790
      2  C1        50.8620    5.6640    4.1490 C.ar  300  INH300      0.1140
      3  C2        50.7170    4.6420    5.0560 C.ar  300  INH300      0.1110
      4  C3        49.7810    3.6900    4.5720 C.ar  300  INH300      0.0580
      5  C4        49.2750    4.0080    3.3440 C.ar  300  INH300      0.0370
      6  S2        49.1410    2.1930    5.1640 S.2   300  INH300     -0.0850
      7  C8        48.1810    2.0340    3.7310 C.ar  300  INH300      0.0190
      8  C9        48.3390    3.0790    2.8220 C.ar  300  INH300     -0.0000
      9  C10       47.2980    0.9800    3.4210 C.ar  300  INH300      0.0490
     10  C11       46.5650    0.9680    2.2110 C.ar  300  INH300      0.0290
     11  C12       46.7470    2.0220    1.3090 C.ar  300  INH300      0.0300
     12  C13       47.6260    3.0810    1.5970 C.ar  300  INH300      0.0160
     13  N1        45.7140   -0.1030    1.9840 N.pl3 300  INH300     -0.3850
     14  H6        45.2460   -0.1580    1.0680 H     300  INH300      0.1600
     15  C14       45.4360   -1.1520    2.9500 C.3   300  INH300      0.0840
     16  C18       45.4650   -2.5320    2.2770 C.3   300  INH300      0.0450
     17  C17       45.1170   -3.6160    3.2940 C.3   300  INH300      0.1370
     18  N2        43.7630   -3.2910    3.8810 N.3   300  INH300     -0.3100
     19  C16       43.7270   -1.9780    4.6210 C.3   300  INH300      0.1370
     20  C15       44.0730   -0.8740    3.6270 C.3   300  INH300      0.0450
     21  S3        42.8180   -4.5840    4.5380 S.O2  300  INH300      0.2320
     22  O7        42.9020   -4.4860    5.9870 O.2   300  INH300     -0.2050
     23  O6        41.5220   -4.5980    3.8870 O.2   300  INH300     -0.2050
     24  C19       43.7690   -6.0060    3.9880 C.3   300  INH300      0.2010
     25  C20       44.0980   -6.8910    5.1660 C.ar  300  INH300     -0.0430
     26  C25       43.1520   -7.8070    5.6700 C.ar  300  INH300      0.0080
     27  C24       43.4670   -8.6210    6.7700 C.ar  300  INH300      0.0010
     28  C23       44.7300   -8.5300    7.3740 C.ar  300  INH300      0.0000
     29  C22       45.6790   -7.6280    6.8830 C.ar  300  INH300      0.0010
     30  C21       45.3620   -6.8110    5.7850 C.ar  300  INH300      0.0080
     31  O3        51.3430    4.5410    6.2560 O.3   300  INH300     -0.3380
     32  C6        52.0750    3.3220    6.4570 C.3   300  INH300      0.2850
     33  C7        53.3810    3.4730    5.6780 C.2   300  INH300      0.1640
     34  O5        53.6100    2.5760    4.8410 O.2   300  INH300     -0.6480
     35  O4        54.0960    4.4680    5.9700 O.3   300  INH300     -0.7750
     36  H         53.9740    4.9090    6.7870 H     300  INH300      0.1670
     37  C5        51.7940    6.9160    4.2630 C.2   300  INH300      0.1860
     38  O2        51.2900    7.9550    3.7510 O.2   300  INH300     -0.6460
     39  O1        52.9270    6.7930    4.8230 O.3   300  INH300     -0.7720
     40  H         53.5560    7.4860    4.7650 H     300  INH300      0.1670
@<TRIPOS>BOND
     1    14    13    1
     2    11    12   ar
     3    11    10   ar
     4    12     8   ar
     5    13    10    1
     6    13    15    1
     7    10     9   ar
     8    16    15    1
     9    16    17    1
    10     1     5   ar
    11     1     2   ar
    12     8     5   ar
    13     8     7   ar
    14    15    20    1
    15    17    18    1
    16     5     4   ar
    17     9     7   ar
    18    20    19    1
    19     7     6   ar
    20    38    37    2
    21    18    21    1
    22    18    19    1
    23    23    21    2
    24    24    21    1
    25    24    25    1
    26     2    37    1
    27     2     3   ar
    28    37    39    1
    29    21    22    2
    30     4     3   ar
    31     4     6   ar
    32    40    39    1
    33    34    33    2
    34     3    31    1
    35    25    26   ar
    36    25    30   ar
    37    26    27   ar
    38    33    35    1
    39    33    32    1
    40    30    29   ar
    41    35    36    1
    42    31    32    1
    43    27    28   ar
    44    29    28   ar
