@<TRIPOS>MOLECULE
/tmp/ewbell/vina_2b07_2b07_lig/vina/vina1.pdbqt
 40 44 0 0 0
SMALL
GASTEIGER

@<TRIPOS>ATOM
      1  S1        44.6230   13.5430   -0.5590 S.2   300  INH300     -0.0790
      2  C1        44.3710   14.7770    0.6040 C.ar  300  INH300      0.1140
      3  C2        44.8880   14.4990    1.8460 C.ar  300  INH300      0.1110
      4  C3        45.4870   13.2110    1.8460 C.ar  300  INH300      0.0580
      5  C4        45.4170   12.5830    0.6360 C.ar  300  INH300      0.0370
      6  S2        46.3170   12.2480    3.0230 S.2   300  INH300     -0.0850
      7  C8        46.5400   10.9970    1.8470 C.ar  300  INH300      0.0190
      8  C9        46.0090   11.2950    0.5920 C.ar  300  INH300     -0.0000
      9  C10       47.1910    9.7620    2.0420 C.ar  300  INH300      0.0490
     10  C11       47.3060    8.8190    0.9940 C.ar  300  INH300      0.0290
     11  C12       46.7740    9.1430   -0.2580 C.ar  300  INH300      0.0300
     12  C13       46.1250   10.3710   -0.4760 C.ar  300  INH300      0.0160
     13  N1        47.9560    7.6250    1.2710 N.pl3 300  INH300     -0.3850
     14  H6        47.7690    6.8230    0.6530 H     300  INH300      0.1600
     15  C14       48.8820    7.4290    2.3730 C.3   300  INH300      0.0840
     16  C18       50.3310    7.6340    1.9070 C.3   300  INH300      0.0450
     17  C17       51.2930    7.3690    3.0640 C.3   300  INH300      0.1370
     18  N2        51.0430    5.9680    3.5690 N.3   300  INH300     -0.3100
     19  C16       49.6520    5.7610    4.1100 C.3   300  INH300      0.1370
     20  C15       48.6680    6.0200    2.9740 C.3   300  INH300      0.0450
     21  S3        52.3300    5.1470    4.3880 S.O2  300  INH300      0.2320
     22  O7        52.8620    4.1540    3.4670 O.2   300  INH300     -0.2050
     23  O6        53.2130    6.1320    4.9800 O.2   300  INH300     -0.2050
     24  C19       51.4180    4.3120    5.6910 C.3   300  INH300      0.2010
     25  C20       51.9120    2.8930    5.8360 C.ar  300  INH300     -0.0430
     26  C25       51.1010    1.8020    5.4620 C.ar  300  INH300      0.0080
     27  C24       51.5690    0.4860    5.6060 C.ar  300  INH300      0.0010
     28  C23       52.8530    0.2490    6.1220 C.ar  300  INH300      0.0000
     29  C22       53.6680    1.3210    6.4950 C.ar  300  INH300      0.0010
     30  C21       53.1980    2.6360    6.3540 C.ar  300  INH300      0.0080
     31  O3        44.8310   15.3040    2.9370 O.3   300  INH300     -0.3380
     32  C6        46.0270   16.0510    3.2030 C.3   300  INH300      0.2850
     33  C7        46.1090   16.2050    4.7210 C.2   300  INH300      0.1640
     34  O5        46.2110   15.1390    5.3620 O.2   300  INH300     -0.6480
     35  O4        46.0450   17.3810    5.1700 O.3   300  INH300     -0.7750
     36  H         46.1660   18.1090    4.5930 H     300  INH300      0.1670
     37  C5        43.6350   16.0810    0.1470 C.2   300  INH300      0.1860
     38  O2        43.5450   16.1830   -1.1080 O.2   300  INH300     -0.6460
     39  O1        43.2170   16.8950    1.0280 O.3   300  INH300     -0.7720
     40  H         43.6840   16.9920    1.8340 H     300  INH300      0.1670
@<TRIPOS>BOND
     1    38    37    2
     2     1     2   ar
     3     1     5   ar
     4    12    11   ar
     5    12     8   ar
     6    11    10   ar
     7    37     2    1
     8    37    39    1
     9     8     5   ar
    10     8     7   ar
    11     2     3   ar
    12     5     4   ar
    13    14    13    1
    14    10    13    1
    15    10     9   ar
    16    39    40    1
    17    13    15    1
    18     3     4   ar
    19     3    31    1
    20     4     6   ar
    21     7     9   ar
    22     7     6   ar
    23    16    15    1
    24    16    17    1
    25    15    20    1
    26    31    32    1
    27    20    19    1
    28    17    18    1
    29    32    33    1
    30    22    21    2
    31    18    19    1
    32    18    21    1
    33    21    23    2
    34    21    24    1
    35    36    35    1
    36    33    35    1
    37    33    34    2
    38    26    27   ar
    39    26    25   ar
    40    27    28   ar
    41    24    25    1
    42    25    30   ar
    43    28    29   ar
    44    30    29   ar
