@<TRIPOS>MOLECULE
/tmp/ewbell/vina_2b07_2b07_lig/vina/vina3.pdbqt
 40 44 0 0 0
SMALL
GASTEIGER

@<TRIPOS>ATOM
      1  S1        51.8270    2.0400    4.7840 S.2   300  INH300     -0.0790
      2  C1        52.3770    3.5800    4.2670 C.ar  300  INH300      0.1140
      3  C2        51.4370    4.3200    3.5920 C.ar  300  INH300      0.1110
      4  C3        50.2300    3.5800    3.4710 C.ar  300  INH300      0.0580
      5  C4        50.2930    2.3470    4.0540 C.ar  300  INH300      0.0370
      6  S2        48.6740    3.8850    2.7750 S.2   300  INH300     -0.0850
      7  C8        48.1400    2.3160    3.2770 C.ar  300  INH300      0.0190
      8  C9        49.1050    1.5780    3.9600 C.ar  300  INH300     -0.0000
      9  C10       46.8640    1.7520    3.0680 C.ar  300  INH300      0.0490
     10  C11       46.5510    0.4520    3.5300 C.ar  300  INH300      0.0290
     11  C12       47.5330   -0.2660    4.2200 C.ar  300  INH300      0.0300
     12  C13       48.8090    0.2790    4.4440 C.ar  300  INH300      0.0160
     13  N1        45.2750   -0.0300    3.2790 N.pl3 300  INH300     -0.3850
     14  H6        44.5630    0.6410    2.9580 H     300  INH300      0.1600
     15  C14       44.8740   -1.4170    3.4380 C.3   300  INH300      0.0840
     16  C18       44.7940   -2.1190    2.0740 C.3   300  INH300      0.0450
     17  C17       44.3170   -3.5590    2.2550 C.3   300  INH300      0.1370
     18  N2        42.9840   -3.5250    2.9640 N.3   300  INH300     -0.3100
     19  C16       43.0490   -2.9160    4.3410 C.3   300  INH300      0.1370
     20  C15       43.5240   -1.4750    4.1900 C.3   300  INH300      0.0450
     21  S3        41.9040   -4.8620    2.7510 S.O2  300  INH300      0.2320
     22  O7        40.8740   -4.4390    1.8160 O.2   300  INH300     -0.2050
     23  O6        42.6830   -6.0550    2.4810 O.2   300  INH300     -0.2050
     24  C19       41.1920   -4.9820    4.3970 C.3   300  INH300      0.2010
     25  C20       40.2890   -6.1880    4.4790 C.ar  300  INH300     -0.0430
     26  C25       40.8160   -7.4720    4.7280 C.ar  300  INH300      0.0080
     27  C24       39.9670   -8.5880    4.7960 C.ar  300  INH300      0.0010
     28  C23       38.5840   -8.4320    4.6200 C.ar  300  INH300      0.0000
     29  C22       38.0470   -7.1650    4.3750 C.ar  300  INH300      0.0010
     30  C21       38.8970   -6.0490    4.3020 C.ar  300  INH300      0.0080
     31  O3        51.6120    5.5660    3.0830 O.3   300  INH300     -0.3380
     32  C6        51.1140    6.6320    3.9050 C.3   300  INH300      0.2850
     33  C7        52.2700    7.6150    4.0790 C.2   300  INH300      0.1640
     34  O5        52.3100    8.5460    3.2480 O.2   300  INH300     -0.6480
     35  O4        53.0700    7.3790    5.0230 O.3   300  INH300     -0.7750
     36  H         53.9310    7.7490    5.0130 H     300  INH300      0.1670
     37  C5        53.8390    4.0010    4.6360 C.2   300  INH300      0.1860
     38  O2        54.6890    3.6400    3.7750 O.2   300  INH300     -0.6460
     39  O1        54.0450    4.6320    5.7190 O.3   300  INH300     -0.7720
     40  H         53.5870    5.4310    5.8900 H     300  INH300      0.1670
@<TRIPOS>BOND
     1    22    21    2
     2    16    17    1
     3    16    15    1
     4    17    18    1
     5    23    21    2
     6    21    18    1
     7    21    24    1
     8     6     7   ar
     9     6     4   ar
    10    14    13    1
    11    18    19    1
    12     9     7   ar
    13     9    10   ar
    14    31     3    1
    15    31    32    1
    16    34    33    2
    17     7     8   ar
    18    13    15    1
    19    13    10    1
    20    15    20    1
    21     4     3   ar
    22     4     5   ar
    23    10    11   ar
    24     3     2   ar
    25    38    37    2
    26    32    33    1
    27     8     5   ar
    28     8    12   ar
    29     5     1   ar
    30    33    35    1
    31    20    19    1
    32    11    12   ar
    33     2    37    1
    34     2     1   ar
    35    30    29   ar
    36    30    25   ar
    37    29    28   ar
    38    24    25    1
    39    25    26   ar
    40    28    27   ar
    41    37    39    1
    42    26    27   ar
    43    36    35    1
    44    39    40    1
