@<TRIPOS>MOLECULE
/tmp/ewbell/vina_2b07_2b07_lig/vina/vina2.pdbqt
 40 44 0 0 0
SMALL
GASTEIGER

@<TRIPOS>ATOM
      1  S1        44.9610   13.0400   -1.1000 S.2   300  INH300     -0.0790
      2  C1        44.4560   14.2360    0.0200 C.ar  300  INH300      0.1140
      3  C2        44.7730   13.9580    1.3270 C.ar  300  INH300      0.1110
      4  C3        45.4300   12.7010    1.4130 C.ar  300  INH300      0.0580
      5  C4        45.5940   12.0960    0.2000 C.ar  300  INH300      0.0370
      6  S2        46.1010   11.7570    2.7000 S.2   300  INH300     -0.0850
      7  C8        46.5810   10.5430    1.5620 C.ar  300  INH300      0.0190
      8  C9        46.2520   10.8390    0.2400 C.ar  300  INH300     -0.0000
      9  C10       47.2530    9.3370    1.8490 C.ar  300  INH300      0.0490
     10  C11       47.5900    8.4220    0.8230 C.ar  300  INH300      0.0290
     11  C12       47.2570    8.7460   -0.4970 C.ar  300  INH300      0.0300
     12  C13       46.5910    9.9450   -0.8050 C.ar  300  INH300      0.0160
     13  N1        48.2460    7.2570    1.1900 N.pl3 300  INH300     -0.3850
     14  H6        48.2150    6.4620    0.5350 H     300  INH300      0.1600
     15  C14       48.9730    7.0790    2.4350 C.3   300  INH300      0.0840
     16  C18       50.4730    7.3410    2.2300 C.3   300  INH300      0.0450
     17  C17       51.2280    7.0950    3.5340 C.3   300  INH300      0.1370
     18  N2        50.9460    5.6790    3.9800 N.3   300  INH300     -0.3100
     19  C16       49.4910    5.4180    4.2700 C.3   300  INH300      0.1370
     20  C15       48.7100    5.6560    2.9810 C.3   300  INH300      0.0450
     21  S3        52.1000    4.8940    5.0050 S.O2  300  INH300      0.2320
     22  O7        53.4220    5.2090    4.4860 O.2   300  INH300     -0.2050
     23  O6        51.7760    5.1860    6.3870 O.2   300  INH300     -0.2050
     24  C19       51.7300    3.1680    4.6640 C.3   300  INH300      0.2010
     25  C20       52.4030    2.7420    3.3820 C.ar  300  INH300     -0.0430
     26  C25       53.7110    2.2160    3.3910 C.ar  300  INH300      0.0080
     27  C24       54.3290    1.8280    2.1910 C.ar  300  INH300      0.0010
     28  C23       53.6450    1.9600    0.9730 C.ar  300  INH300      0.0000
     29  C22       52.3470    2.4780    0.9500 C.ar  300  INH300      0.0010
     30  C21       51.7310    2.8690    2.1500 C.ar  300  INH300      0.0080
     31  O3        44.4930   14.7370    2.4040 O.3   300  INH300     -0.3380
     32  C6        45.6130   15.4570    2.9380 C.3   300  INH300      0.2850
     33  C7        45.4060   15.5130    4.4510 C.2   300  INH300      0.1640
     34  O5        44.4650   16.2380    4.8350 O.2   300  INH300     -0.6480
     35  O4        46.2100   14.8430    5.1520 O.3   300  INH300     -0.7750
     36  H         46.2790   13.9170    5.0310 H     300  INH300      0.1670
     37  C5        43.7390   15.5110   -0.5380 C.2   300  INH300      0.1860
     38  O2        43.5850   15.4820   -1.7910 O.2   300  INH300     -0.6460
     39  O1        43.3980   16.4300    0.2690 O.3   300  INH300     -0.7720
     40  H         44.0510   16.9690    0.6690 H     300  INH300      0.1670
@<TRIPOS>BOND
     1    38    37    2
     2     1     2   ar
     3     1     5   ar
     4    12    11   ar
     5    12     8   ar
     6    37     2    1
     7    37    39    1
     8    11    10   ar
     9     2     3   ar
    10     5     8   ar
    11     5     4   ar
    12     8     7   ar
    13    39    40    1
    14    14    13    1
    15    10    13    1
    16    10     9   ar
    17    29    28   ar
    18    29    30   ar
    19    28    27   ar
    20    13    15    1
    21     3     4   ar
    22     3    31    1
    23     4     6   ar
    24     7     9   ar
    25     7     6   ar
    26    30    25   ar
    27    27    26   ar
    28    16    15    1
    29    16    17    1
    30    31    32    1
    31    15    20    1
    32    32    33    1
    33    20    19    1
    34    25    26   ar
    35    25    24    1
    36    17    18    1
    37    18    19    1
    38    18    21    1
    39    33    34    2
    40    33    35    1
    41    22    21    2
    42    24    21    1
    43    21    23    2
    44    36    35    1
