@<TRIPOS>MOLECULE
./ligand/1utm_lig.pdb
 21 21 0 0 0
SMALL
GASTEIGER

@<TRIPOS>ATOM
      1  C1        93.9350   77.8830  -16.7310 C.ar  226  INH226     -0.0423
      2  C2        94.8120   78.2330  -17.7540 C.ar  226  INH226     -0.0584
      3  C3        94.6460   77.7290  -19.0430 C.ar  226  INH226     -0.0615
      4  C4        93.5850   76.8640  -19.3160 C.ar  226  INH226     -0.0617
      5  C5        92.7040   76.5110  -18.3000 C.ar  226  INH226     -0.0615
      6  C6        92.8830   77.0210  -17.0150 C.ar  226  INH226     -0.0584
      7  C7        94.1270   78.4200  -15.3370 C.3   226  INH226      0.0126
      8  C8        94.6600   79.8400  -15.2930 C.3   226  INH226     -0.0313
      9  N1        94.8930   80.2770  -13.8970 N.4   226  INH226      0.2188
     10  H1        95.6350   78.9070  -17.5450 H     226  INH226      0.0620
     11  H2        95.3380   78.0070  -19.8300 H     226  INH226      0.0618
     12  H3        93.4490   76.4690  -20.3160 H     226  INH226      0.0618
     13  H4        91.8790   75.8400  -18.5070 H     226  INH226      0.0618
     14  H5        92.1930   76.7420  -16.2270 H     226  INH226      0.0620
     15  H6        94.8380   77.7670  -14.8090 H     226  INH226      0.0365
     16  H7        93.1560   78.3980  -14.8210 H     226  INH226      0.0365
     17  H8        93.9280   80.5130  -15.7630 H     226  INH226      0.0816
     18  H9        95.6090   79.8850  -15.8470 H     226  INH226      0.0816
     19  H10       95.2460   81.2210  -13.8950 H     226  INH226      0.1994
     20  H11       95.5660   79.6660  -13.4610 H     226  INH226      0.1994
     21  H12       94.0260   80.2420  -13.3850 H     226  INH226      0.1994
@<TRIPOS>BOND
     1     1     7    1
     2     1     6   ar
     3     1     2   ar
     4     2    10    1
     5     2     3   ar
     6     3    11    1
     7     3     4   ar
     8     4    12    1
     9     4     5   ar
    10     5    13    1
    11     5     6   ar
    12     6    14    1
    13     7    16    1
    14     7    15    1
    15     7     8    1
    16     8    18    1
    17     8    17    1
    18     8     9    1
    19     9    21    1
    20     9    20    1
    21     9    19    1
