@<TRIPOS>MOLECULE
/tmp/ewbell/vina_1utm_1utm_lig/vina/vina3.pdbqt
 12 12 0 0 0
SMALL
GASTEIGER

@<TRIPOS>ATOM
      1  C1        93.9180   77.3890  -16.7930 C.ar  226  INH226     -0.0570
      2  C2        95.0330   78.2180  -16.8820 C.ar  226  INH226      0.0070
      3  C3        95.2180   79.2690  -15.9850 C.ar  226  INH226      0.0010
      4  C4        94.2760   79.4940  -14.9810 C.ar  226  INH226      0.0000
      5  C5        93.1600   78.6700  -14.8840 C.ar  226  INH226      0.0010
      6  C6        92.9870   77.6240  -15.7890 C.ar  226  INH226      0.0070
      7  C7        93.7170   76.2640  -17.7730 C.3   226  INH226      0.0650
      8  C8        92.7950   76.6100  -18.9270 C.3   226  INH226      0.2340
      9  N1        91.3960   76.2330  -18.6210 N.4   226  INH226     -0.0790
     10  H12       91.3850   75.5690  -17.8620 H     226  INH226      0.2740
     11  H11       90.8760   77.0560  -18.3560 H     226  INH226      0.2740
     12  H10       90.9730   75.8180  -19.4360 H     226  INH226      0.2740
@<TRIPOS>BOND
     1    12     9    1
     2     8     9    1
     3     8     7    1
     4     9    11    1
     5     9    10    1
     6     7     1    1
     7     2     1   ar
     8     2     3   ar
     9     1     6   ar
    10     3     4   ar
    11     6     5   ar
    12     4     5   ar
