@<TRIPOS>MOLECULE
/tmp/ewbell/vina_1utm_1utm_lig/vina/vina2.pdbqt
 12 12 0 0 0
SMALL
GASTEIGER

@<TRIPOS>ATOM
      1  C1        94.4110   77.6710  -16.4890 C.ar  226  INH226     -0.0570
      2  C2        95.3320   78.2090  -17.3840 C.ar  226  INH226      0.0070
      3  C3        95.4380   77.7170  -18.6840 C.ar  226  INH226      0.0010
      4  C4        94.6090   76.6740  -19.0980 C.ar  226  INH226      0.0000
      5  C5        93.6860   76.1320  -18.2100 C.ar  226  INH226      0.0010
      6  C6        93.5920   76.6330  -16.9130 C.ar  226  INH226      0.0070
      7  C7        94.3110   78.1980  -15.0810 C.3   226  INH226      0.0650
      8  C8        94.3650   79.7110  -14.9850 C.3   226  INH226      0.2340
      9  N1        94.8790   80.1420  -13.6660 N.4   226  INH226     -0.0790
     10  H12       94.2870   80.8690  -13.2950 H     226  INH226      0.2740
     11  H11       94.8850   79.3560  -13.0330 H     226  INH226      0.2740
     12  H10       95.8180   80.4950  -13.7690 H     226  INH226      0.2740
@<TRIPOS>BOND
     1     4     3   ar
     2     4     5   ar
     3     3     2   ar
     4     5     6   ar
     5     2     1   ar
     6     6     1   ar
     7     1     7    1
     8     7     8    1
     9     8     9    1
    10    12     9    1
    11     9    10    1
    12     9    11    1
