@<TRIPOS>MOLECULE
/tmp/ewbell/vina_1utm_1utm_lig/vina/vina4.pdbqt
 12 12 0 0 0
SMALL
GASTEIGER

@<TRIPOS>ATOM
      1  C1        93.8660   77.1350  -17.2910 C.ar  226  INH226     -0.0570
      2  C2        92.8120   77.2870  -16.3940 C.ar  226  INH226      0.0070
      3  C3        92.8910   78.2010  -15.3450 C.ar  226  INH226      0.0010
      4  C4        94.0400   78.9800  -15.1920 C.ar  226  INH226      0.0000
      5  C5        95.0960   78.8350  -16.0850 C.ar  226  INH226      0.0010
      6  C6        95.0040   77.9150  -17.1280 C.ar  226  INH226      0.0070
      7  C7        93.7800   76.1360  -18.4150 C.3   226  INH226      0.0650
      8  C8        92.5260   76.2640  -19.2580 C.3   226  INH226      0.2340
      9  N1        91.8990   74.9420  -19.4840 N.4   226  INH226     -0.0790
     10  H12       92.5280   74.2150  -19.1780 H     226  INH226      0.2740
     11  H11       91.0380   74.8840  -18.9630 H     226  INH226      0.2740
     12  H10       91.7050   74.8240  -20.4660 H     226  INH226      0.2740
@<TRIPOS>BOND
     1    12     9    1
     2     9     8    1
     3     9    10    1
     4     9    11    1
     5     8     7    1
     6     7     1    1
     7     1     6   ar
     8     1     2   ar
     9     6     5   ar
    10     2     3   ar
    11     5     4   ar
    12     3     4   ar
