@<TRIPOS>MOLECULE
/tmp/ewbell/vina_1utm_1utm_lig/vina/vina5.pdbqt
 12 12 0 0 0
SMALL
GASTEIGER

@<TRIPOS>ATOM
      1  C1        93.6650   78.5300  -17.4140 C.ar  226  INH226     -0.0570
      2  C2        94.5730   79.5550  -17.1570 C.ar  226  INH226      0.0070
      3  C3        94.7660   80.0320  -15.8620 C.ar  226  INH226      0.0010
      4  C4        94.0450   79.4750  -14.8050 C.ar  226  INH226      0.0000
      5  C5        93.1380   78.4510  -15.0530 C.ar  226  INH226      0.0010
      6  C6        92.9530   77.9840  -16.3530 C.ar  226  INH226      0.0070
      7  C7        93.4500   78.0280  -18.8170 C.3   226  INH226      0.0650
      8  C8        92.1940   78.5640  -19.4770 C.3   226  INH226      0.2340
      9  N1        92.4660   79.8400  -20.1780 N.4   226  INH226     -0.0790
     10  H12       92.3250   80.6090  -19.5420 H     226  INH226      0.2740
     11  H11       93.4180   79.8460  -20.5090 H     226  INH226      0.2740
     12  H10       91.8380   79.9340  -20.9620 H     226  INH226      0.2740
@<TRIPOS>BOND
     1    12     9    1
     2    11     9    1
     3     9    10    1
     4     9     8    1
     5     8     7    1
     6     7     1    1
     7     1     2   ar
     8     1     6   ar
     9     2     3   ar
    10     6     5   ar
    11     3     4   ar
    12     5     4   ar
