@<TRIPOS>MOLECULE
/tmp/ewbell/vina_1utm_1utm_lig/vina/vina1.pdbqt
 12 12 0 0 0
SMALL
GASTEIGER

@<TRIPOS>ATOM
      1  C1        94.4230   77.6530  -16.4890 C.ar  226  INH226     -0.0570
      2  C2        93.5900   76.6290  -16.9290 C.ar  226  INH226      0.0070
      3  C3        93.6850   76.1370  -18.2300 C.ar  226  INH226      0.0010
      4  C4        94.6310   76.6740  -19.1050 C.ar  226  INH226      0.0000
      5  C5        95.4680   77.6960  -18.6720 C.ar  226  INH226      0.0010
      6  C6        95.3600   78.1800  -17.3690 C.ar  226  INH226      0.0070
      7  C7        94.3060   78.1900  -15.0870 C.3   226  INH226      0.0650
      8  C8        94.3760   79.7030  -15.0000 C.3   226  INH226      0.2340
      9  N1        94.8800   80.1370  -13.6770 N.4   226  INH226     -0.0790
     10  H12       95.2000   81.0910  -13.7360 H     226  INH226      0.2740
     11  H11       94.1400   80.0710  -12.9960 H     226  INH226      0.2740
     12  H10       95.6460   79.5440  -13.3980 H     226  INH226      0.2740
@<TRIPOS>BOND
     1     4     5   ar
     2     4     3   ar
     3     5     6   ar
     4     3     2   ar
     5     6     1   ar
     6     2     1   ar
     7     1     7    1
     8     7     8    1
     9     8     9    1
    10    10     9    1
    11     9    12    1
    12     9    11    1
