@<TRIPOS>MOLECULE
./ligand/2fv5_lig.pdb
 59 62 0 0 0
SMALL
GASTEIGER

@<TRIPOS>ATOM
      1  C1        51.8600   26.4430   48.4470 C.ar  260  INH260     -0.0357
      2  C2        53.2770   26.5840   48.3820 C.ar  260  INH260     -0.0597
      3  C3        53.8630   27.7830   47.8840 C.ar  260  INH260     -0.0611
      4  C4        53.0370   28.8590   47.4450 C.ar  260  INH260     -0.0522
      5  C5        51.6160   28.7470   47.4960 C.ar  260  INH260      0.0068
      6  C6        51.0220   27.5120   48.0160 C.ar  260  INH260      0.0716
      7  N1        49.6340   27.4120   48.0600 N.ar  260  INH260     -0.2519
      8  C7        47.3560   28.2570   47.7290 C.3   260  INH260     -0.0223
      9  C8        48.8100   28.4280   47.6520 C.ar  260  INH260      0.0393
     10  C9        49.3490   29.6490   47.1410 C.ar  260  INH260     -0.0337
     11  C10       50.7790   29.8220   47.0640 C.ar  260  INH260      0.0004
     12  C11       51.4310   31.1220   46.5080 C.3   260  INH260      0.1153
     13  C12       50.1570   31.6560   44.5020 C.ar  260  INH260      0.1210
     14  O1        50.4990   31.9980   45.8330 O.3   260  INH260     -0.4874
     15  C13       49.2100   32.4650   43.8110 C.ar  260  INH260     -0.0196
     16  C14       48.8140   32.1450   42.4810 C.ar  260  INH260     -0.0541
     17  C15       49.3770   31.0120   41.8150 C.ar  260  INH260     -0.0324
     18  C16       50.3220   30.1970   42.4990 C.ar  260  INH260     -0.0541
     19  C17       50.7190   30.5170   43.8270 C.ar  260  INH260     -0.0196
     20  C18       50.2330   30.2280   39.5520 C.3   260  INH260     -0.0193
     21  C19       48.9930   30.6900   40.3880 C.3   260  INH260      0.0706
     22  C20       47.8410   29.7210   40.3720 C.3   260  INH260     -0.0471
     23  C21       48.5270   31.9750   39.6740 C.2   260  INH260      0.2265
     24  O2        47.4520   32.5230   39.8210 O.2   260  INH260     -0.2746
     25  C22       50.5360   31.3720   38.5540 C.3   260  INH260      0.0167
     26  C23       49.6120   33.7160   38.3160 C.3   260  INH260      0.1013
     27  C24       50.6110   34.4730   39.1670 C.2   260  INH260      0.2557
     28  N2        50.0830   35.5090   39.8360 N.am  260  INH260     -0.1960
     29  O3        50.9050   36.2560   40.6690 O.3   260  INH260     -0.2951
     30  O4        51.7870   34.1040   39.2380 O.2   260  INH260     -0.2717
     31  C25       50.0500   33.6790   36.8450 C.3   260  INH260     -0.0378
     32  N3        49.5090   32.3590   38.8280 N.am  260  INH260     -0.2894
     33  H1        51.4210   25.5260   48.8230 H     260  INH260      0.0639
     34  H2        53.9140   25.7720   48.7140 H     260  INH260      0.0618
     35  H3        54.9420   27.8780   47.8390 H     260  INH260      0.0618
     36  H4        53.4920   29.7680   47.0700 H     260  INH260      0.0624
     37  H5        46.8600   29.1680   47.3620 H     260  INH260      0.0292
     38  H6        47.0630   28.0750   48.7740 H     260  INH260      0.0292
     39  H7        47.0540   27.4000   47.1090 H     260  INH260      0.0292
     40  H8        48.6860   30.4420   46.8130 H     260  INH260      0.0639
     41  H9        51.8790   31.6730   47.3490 H     260  INH260      0.0748
     42  H10       52.2190   30.8380   45.7950 H     260  INH260      0.0748
     43  H11       48.7860   33.3330   44.3030 H     260  INH260      0.0654
     44  H12       48.0830   32.7630   41.9720 H     260  INH260      0.0622
     45  H13       50.7420   29.3280   42.0050 H     260  INH260      0.0622
     46  H14       51.4500   29.8980   44.3340 H     260  INH260      0.0654
     47  H15       50.0020   29.3000   39.0080 H     260  INH260      0.0293
     48  H16       51.0960   30.0600   40.2120 H     260  INH260      0.0293
     49  H17       47.0170   30.1210   40.9810 H     260  INH260      0.0243
     50  H18       48.1680   28.7560   40.7870 H     260  INH260      0.0243
     51  H19       47.4970   29.5780   39.3370 H     260  INH260      0.0243
     52  H20       51.5380   31.7910   38.7320 H     260  INH260      0.0465
     53  H21       50.4670   31.0140   37.5160 H     260  INH260      0.0465
     54  H22       48.6320   34.2100   38.3840 H     260  INH260      0.0594
     55  H23       49.1150   35.7390   39.7360 H     260  INH260      0.1823
     56  H24       50.3990   36.9510   41.0730 H     260  INH260      0.2414
     57  H25       50.1270   34.7060   36.4590 H     260  INH260      0.0252
     58  H26       49.3080   33.1210   36.2550 H     260  INH260      0.0252
     59  H27       51.0290   33.1830   36.7660 H     260  INH260      0.0252
@<TRIPOS>BOND
     1     1     6   ar
     2     1     2   ar
     3     1    33    1
     4     2     3   ar
     5     2    34    1
     6     3     4   ar
     7     3    35    1
     8     4     5   ar
     9     4    36    1
    10     5    11   ar
    11     5     6   ar
    12     6     7   ar
    13     7     9   ar
    14     8     9    1
    15     8    39    1
    16     8    38    1
    17     8    37    1
    18     9    10   ar
    19    10    11   ar
    20    10    40    1
    21    11    12    1
    22    12    14    1
    23    12    42    1
    24    12    41    1
    25    13    19   ar
    26    13    14    1
    27    13    15   ar
    28    15    43    1
    29    15    16   ar
    30    16    17   ar
    31    16    44    1
    32    17    21    1
    33    17    18   ar
    34    18    45    1
    35    18    19   ar
    36    19    46    1
    37    20    25    1
    38    20    48    1
    39    20    47    1
    40    20    21    1
    41    21    22    1
    42    21    23    1
    43    22    51    1
    44    22    50    1
    45    22    49    1
    46    23    32   am
    47    23    24    2
    48    25    32    1
    49    25    53    1
    50    25    52    1
    51    26    54    1
    52    26    27    1
    53    26    31    1
    54    26    32    1
    55    27    28   am
    56    27    30    2
    57    28    55    1
    58    28    29    1
    59    29    56    1
    60    31    59    1
    61    31    58    1
    62    31    57    1
