@<TRIPOS>MOLECULE
/tmp/ewbell/vina_2fv5_2fv5_lig/vina/vina3.pdbqt
 35 38 0 0 0
SMALL
GASTEIGER

@<TRIPOS>ATOM
      1  C12       47.9270   25.6750   47.7250 C.ar  260  INH260      0.0690
      2  C13       47.6160   24.4420   47.0840 C.ar  260  INH260      0.0370
      3  C14       46.4830   24.3330   46.2280 C.ar  260  INH260      0.0110
      4  C15       45.6330   25.4620   46.0120 C.ar  260  INH260     -0.0400
      5  C16       45.9380   26.6990   46.6460 C.ar  260  INH260      0.0110
      6  C17       47.0690   26.8080   47.5030 C.ar  260  INH260      0.0370
      7  C19       44.4050   25.3440   45.1370 C.3   260  INH260      0.0660
      8  C18       43.6480   23.9970   45.3920 C.3   260  INH260      0.0440
      9  C22       43.8680   23.1300   44.1270 C.3   260  INH260      0.1280
     10  N3        44.6640   23.9730   43.2560 N.am  260  INH260     -0.3380
     11  C21       44.8290   25.2540   43.6580 C.2   260  INH260      0.2330
     12  O2        45.2110   26.1780   42.9670 O.2   260  INH260     -0.2720
     13  C20       43.5470   26.5720   45.2870 C.3   260  INH260      0.0310
     14  C23       45.3390   23.4270   42.0900 C.3   260  INH260      0.1770
     15  C25       44.6720   22.1070   41.6810 C.3   260  INH260      0.0420
     16  C24       46.8000   23.2190   42.4380 C.2   260  INH260      0.2630
     17  N2        47.6270   24.1100   41.8700 N.am  260  INH260     -0.2360
     18  H23       48.6090   24.0780   42.0500 H     260  INH260      0.1970
     19  O4        47.1420   22.3220   43.2130 O.2   260  INH260     -0.2690
     20  O3        47.0930   25.0750   41.0270 O.3   260  INH260     -0.2870
     21  H24       46.5180   25.6460   41.5230 H     260  INH260      0.2440
     22  O1        49.0790   25.7420   48.5450 O.3   260  INH260     -0.3470
     23  C11       49.5190   27.0630   48.9400 C.3   260  INH260      0.2150
     24  C10       50.7350   27.5880   48.1210 C.ar  260  INH260     -0.0200
     25  C5        50.5930   28.7750   47.3380 C.ar  260  INH260     -0.0010
     26  C4        49.3620   29.4950   47.3150 C.2   260  INH260      0.0140
     27  C6        51.7230   29.2820   46.5530 C.ar  260  INH260      0.0430
     28  C3        49.2330   30.6820   46.5350 C.2   260  INH260      0.0010
     29  C2        50.3340   31.1630   45.7710 C.3   260  INH260      0.0020
     30  C1        51.5780   30.4670   45.7750 C.2   260  INH260      0.0300
     31  N1        52.9200   28.5710   46.5810 N.pl3 260  INH260     -0.3590
     32  C8        53.0810   27.4300   47.3240 C.ar  260  INH260      0.0060
     33  H1        53.7060   28.9120   46.0280 H     260  INH260      0.1660
     34  C7        54.3700   26.7330   47.3100 C.3   260  INH260      0.0680
     35  C9        52.0050   26.9040   48.1030 C.ar  260  INH260      0.0340
@<TRIPOS>BOND
     1    20    21    1
     2    20    17    1
     3    15    14    1
     4    17    18    1
     5    17    16   am
     6    14    16    1
     7    14    10    1
     8    16    19    2
     9    12    11    2
    10    10    11   am
    11    10     9    1
    12    11     7    1
    13     9     8    1
    14     7    13    1
    15     7     8    1
    16     7     4    1
    17    29    30    1
    18    29    28    1
    19    30    27    2
    20     4     3   ar
    21     4     5   ar
    22    33    31    1
    23     3     2   ar
    24    28    26    2
    25    27    31   ar
    26    27    25   ar
    27    31    32   ar
    28     5     6   ar
    29     2     1   ar
    30    34    32    1
    31    26    25    1
    32    32    35   ar
    33    25    24   ar
    34     6     1   ar
    35     1    22    1
    36    35    24   ar
    37    24    23    1
    38    22    23    1
