@<TRIPOS>MOLECULE
/tmp/ewbell/vina_2fv5_2fv5_lig/vina/vina5.pdbqt
 35 38 0 0 0
SMALL
GASTEIGER

@<TRIPOS>ATOM
      1  C12       46.5990   26.9670   47.0620 C.ar  260  INH260      0.0690
      2  C13       45.4750   26.8970   46.1910 C.ar  260  INH260      0.0370
      3  C14       45.0740   25.6550   45.6210 C.ar  260  INH260      0.0110
      4  C15       45.8090   24.4620   45.9040 C.ar  260  INH260     -0.0400
      5  C16       46.9320   24.5230   46.7750 C.ar  260  INH260      0.0110
      6  C17       47.3340   25.7630   47.3440 C.ar  260  INH260      0.0370
      7  C19       45.4150   23.1470   45.2690 C.3   260  INH260      0.0660
      8  C18       45.2170   23.2950   43.7230 C.3   260  INH260      0.0440
      9  C22       43.6950   23.1610   43.4650 C.3   260  INH260      0.1280
     10  N3        43.1340   22.9320   44.7830 N.am  260  INH260     -0.3380
     11  C21       44.0230   22.7210   45.7790 C.2   260  INH260      0.2330
     12  O2        43.7770   22.2470   46.8710 O.2   260  INH260     -0.2720
     13  C20       46.3890   22.0710   45.6670 C.3   260  INH260      0.0310
     14  C23       41.7050   23.0510   45.0230 C.3   260  INH260      0.1770
     15  C25       40.9330   22.5350   43.8000 C.3   260  INH260      0.0420
     16  C24       41.3850   24.5060   45.3000 C.2   260  INH260      0.2630
     17  N2        41.2010   24.7850   46.5990 N.am  260  INH260     -0.2360
     18  H23       41.0080   25.7200   46.8960 H     260  INH260      0.1970
     19  O4        41.3510   25.3300   44.3820 O.2   260  INH260     -0.2690
     20  O3        41.2840   23.7530   47.5240 O.3   260  INH260     -0.2870
     21  H24       41.0970   22.9270   47.0940 H     260  INH260      0.2440
     22  O1        46.9430   28.2190   47.6280 O.3   260  INH260     -0.3470
     23  C11       48.2600   28.3250   48.2170 C.3   260  INH260      0.2150
     24  C10       49.2800   29.1040   47.3360 C.ar  260  INH260     -0.0200
     25  C5        50.6630   28.7470   47.3800 C.ar  260  INH260     -0.0010
     26  C4        51.1150   27.6730   48.2030 C.2   260  INH260      0.0140
     27  C6        51.6400   29.4730   46.5640 C.ar  260  INH260      0.0430
     28  C3        52.4970   27.3200   48.2360 C.2   260  INH260      0.0010
     29  C2        53.4400   28.0350   47.4440 C.3   260  INH260      0.0020
     30  C1        53.0180   29.1120   46.6100 C.2   260  INH260      0.0300
     31  N1        51.1880   30.5200   45.7660 N.ar  260  INH260     -0.3590
     32  C8        49.8670   30.8820   45.7050 C.ar  260  INH260      0.0060
     33  H1        51.8650   31.0370   45.2050 H     260  INH260      0.1660
     34  C7        49.4600   31.9940   44.8410 C.3   260  INH260      0.0680
     35  C9        48.8840   30.1990   46.4840 C.ar  260  INH260      0.0340
@<TRIPOS>BOND
     1     9     8    1
     2     9    10    1
     3     8     7    1
     4    15    14    1
     5    19    16    2
     6    10    14    1
     7    10    11   am
     8    34    32    1
     9    14    16    1
    10    33    31    1
    11     7    13    1
    12     7    11    1
    13     7     4    1
    14    16    17   am
    15     3     4   ar
    16     3     2   ar
    17    32    31   ar
    18    32    35   ar
    19    31    27   ar
    20    11    12    2
    21     4     5   ar
    22     2     1   ar
    23    35    24   ar
    24    27    30    2
    25    27    25   ar
    26    17    18    1
    27    17    20    1
    28    30    29    1
    29     5     6   ar
    30     1     6   ar
    31     1    22    1
    32    21    20    1
    33    24    25   ar
    34    24    23    1
    35    25    26    1
    36    29    28    1
    37    22    23    1
    38    26    28    2
