@<TRIPOS>MOLECULE
/tmp/ewbell/vina_2fv5_2fv5_lig/vina/vina2.pdbqt
 35 38 0 0 0
SMALL
GASTEIGER

@<TRIPOS>ATOM
      1  C12       50.6290   31.0200   44.5960 C.ar  260  INH260      0.0690
      2  C13       51.3680   30.3010   43.6140 C.ar  260  INH260      0.0370
      3  C14       50.7710   29.9450   42.3710 C.ar  260  INH260      0.0110
      4  C15       49.4100   30.2920   42.1000 C.ar  260  INH260     -0.0400
      5  C16       48.6650   31.0130   43.0760 C.ar  260  INH260      0.0110
      6  C17       49.2610   31.3680   44.3170 C.ar  260  INH260      0.0370
      7  C19       48.7560   29.8800   40.8010 C.3   260  INH260      0.0660
      8  C18       49.6400   28.8550   40.0140 C.3   260  INH260      0.0440
      9  C22       50.1850   29.6110   38.7770 C.3   260  INH260      0.1280
     10  N3        49.6070   30.9370   38.8910 N.am  260  INH260     -0.3380
     11  C21       48.6720   31.0950   39.8550 C.2   260  INH260      0.2330
     12  O2        47.8810   32.0150   39.9420 O.2   260  INH260     -0.2720
     13  C20       47.3490   29.4120   41.0590 C.3   260  INH260      0.0310
     14  C23       50.1040   32.0460   38.0940 C.3   260  INH260      0.1770
     15  C25       51.3000   31.5800   37.2520 C.3   260  INH260      0.0420
     16  C24       50.4970   33.1700   39.0310 C.2   260  INH260      0.2630
     17  N2        49.7620   34.2830   38.8860 N.am  260  INH260     -0.2360
     18  H23       49.9220   35.0780   39.4700 H     260  INH260      0.1970
     19  O4        51.3930   33.0120   39.8650 O.2   260  INH260     -0.2690
     20  O3        48.7750   34.3100   37.9110 O.3   260  INH260     -0.2870
     21  H24       47.9380   34.0860   38.3010 H     260  INH260      0.2440
     22  O1        51.2750   31.3770   45.8050 O.3   260  INH260     -0.3470
     23  C11       50.5070   31.2190   47.0210 C.3   260  INH260      0.2150
     24  C10       50.1840   29.7360   47.3690 C.3   260  INH260     -0.0200
     25  C5        51.2560   28.8180   47.5940 C.ar  260  INH260     -0.0010
     26  C4        52.6140   29.2490   47.5280 C.ar  260  INH260      0.0140
     27  C6        50.9740   27.4160   47.9150 C.ar  260  INH260      0.0430
     28  C3        53.6770   28.3270   47.7610 C.ar  260  INH260      0.0010
     29  C2        53.3930   26.9650   48.0660 C.ar  260  INH260      0.0020
     30  C1        52.0460   26.5050   48.1420 C.ar  260  INH260      0.0300
     31  N1        49.6450   27.0060   47.9760 N.pl3 260  INH260     -0.3590
     32  C8        48.5980   27.8660   47.7640 C.2   260  INH260      0.0060
     33  H1        49.4420   26.0290   48.1880 H     260  INH260      0.1660
     34  C7        47.2220   27.3670   47.8470 C.3   260  INH260      0.0680
     35  C9        48.8320   29.2400   47.4500 C.2   260  INH260      0.0340
@<TRIPOS>BOND
     1    15    14    1
     2    20    21    1
     3    20    17    1
     4    14    10    1
     5    14    16    1
     6     9    10    1
     7     9     8    1
     8    17    16   am
     9    17    18    1
    10    10    11   am
    11    16    19    2
    12    11    12    2
    13    11     7    1
    14     8     7    1
    15     7    13    1
    16     7     4    1
    17     4     3   ar
    18     4     5   ar
    19     3     2   ar
    20     5     6   ar
    21     2     1   ar
    22     6     1   ar
    23     1    22    1
    24    22    23    1
    25    23    24    1
    26    24    35    1
    27    24    25    1
    28    35    32    2
    29    26    25   ar
    30    26    28   ar
    31    25    27   ar
    32    28    29   ar
    33    32    34    1
    34    32    31    1
    35    27    31    1
    36    27    30   ar
    37    31    33    1
    38    29    30   ar
