@<TRIPOS>MOLECULE
/tmp/ewbell/vina_2fv5_2fv5_lig/vina/vina4.pdbqt
 35 38 0 0 0
SMALL
GASTEIGER

@<TRIPOS>ATOM
      1  C12       47.0110   27.0930   47.5300 C.ar  260  INH260      0.0690
      2  C13       47.6910   25.8750   47.8170 C.ar  260  INH260      0.0370
      3  C14       47.4020   24.6900   47.0820 C.ar  260  INH260      0.0110
      4  C15       46.4100   24.7060   46.0530 C.ar  260  INH260     -0.0400
      5  C16       45.7270   25.9190   45.7570 C.ar  260  INH260      0.0110
      6  C17       46.0150   27.1030   46.4920 C.ar  260  INH260      0.0370
      7  C19       46.0670   23.4420   45.2960 C.3   260  INH260      0.0660
      8  C18       45.9500   23.7090   43.7580 C.3   260  INH260      0.0440
      9  C22       44.4470   23.5820   43.4080 C.3   260  INH260      0.1280
     10  N3        43.8190   23.2460   44.6720 N.am  260  INH260     -0.3380
     11  C21       44.6560   22.9650   45.6950 C.2   260  INH260      0.2330
     12  O2        44.3580   22.4040   46.7320 O.2   260  INH260     -0.2720
     13  C20       47.0340   22.3470   45.6620 C.3   260  INH260      0.0310
     14  C23       42.3780   23.3320   44.8430 C.3   260  INH260      0.1770
     15  C25       41.6810   22.9970   43.5160 C.3   260  INH260      0.0420
     16  C24       42.0340   24.7340   45.3050 C.2   260  INH260      0.2630
     17  N2        41.6630   24.8070   46.5920 N.am  260  INH260     -0.2360
     18  H23       41.4360   25.6890   47.0060 H     260  INH260      0.1970
     19  O4        42.1430   25.6950   44.5380 O.2   260  INH260     -0.2690
     20  O3        41.5990   23.6390   47.3380 O.3   260  INH260     -0.2870
     21  H24       42.0270   23.7730   48.1750 H     260  INH260      0.2440
     22  O1        47.3520   28.2520   48.2690 O.3   260  INH260     -0.3470
     23  C11       47.7280   29.4220   47.5040 C.3   260  INH260      0.2150
     24  C10       49.2140   29.4160   47.0420 C.ar  260  INH260     -0.0200
     25  C5        49.5740   30.0790   45.8270 C.ar  260  INH260     -0.0010
     26  C4        48.5940   30.7620   45.0490 C.2   260  INH260      0.0140
     27  C6        50.9670   30.0790   45.3700 C.ar  260  INH260      0.0430
     28  C3        48.9640   31.4250   43.8410 C.2   260  INH260      0.0010
     29  C2        50.3180   31.4140   43.4020 C.3   260  INH260      0.0020
     30  C1        51.3210   30.7420   44.1600 C.2   260  INH260      0.0300
     31  N1        51.9150   29.4080   46.1370 N.ar  260  INH260     -0.3590
     32  C8        51.5960   28.7650   47.3050 C.ar  260  INH260      0.0060
     33  H1        52.8840   29.3940   45.8180 H     260  INH260      0.1660
     34  C7        52.6460   28.0800   48.0650 C.3   260  INH260      0.0680
     35  C9        50.2500   28.7430   47.7850 C.ar  260  INH260      0.0340
@<TRIPOS>BOND
     1    29    28    1
     2    29    30    1
     3     9     8    1
     4     9    10    1
     5    15    14    1
     6     8     7    1
     7    28    26    2
     8    30    27    2
     9    19    16    2
    10    10    14    1
    11    10    11   am
    12    14    16    1
    13    26    25    1
    14     7    13    1
    15     7    11    1
    16     7     4    1
    17    16    17   am
    18    27    25   ar
    19    27    31   ar
    20    11    12    2
    21     5     4   ar
    22     5     6   ar
    23    33    31    1
    24    25    24   ar
    25     4     3   ar
    26    31    32   ar
    27     6     1   ar
    28    17    18    1
    29    17    20    1
    30    24    23    1
    31    24    35   ar
    32     3     2   ar
    33    32    35   ar
    34    32    34    1
    35    20    21    1
    36    23    22    1
    37     1     2   ar
    38     1    22    1
