@<TRIPOS>MOLECULE
/tmp/ewbell/vina_2fv5_2fv5_lig/vina/vina1.pdbqt
 35 38 0 0 0
SMALL
GASTEIGER

@<TRIPOS>ATOM
      1  C12       50.6130   31.0150   44.6180 C.ar  260  INH260      0.0690
      2  C13       51.4010   30.4330   43.5840 C.ar  260  INH260      0.0370
      3  C14       50.8030   30.0190   42.3600 C.ar  260  INH260      0.0110
      4  C15       49.3950   30.1700   42.1590 C.ar  260  INH260     -0.0400
      5  C16       48.6010   30.7520   43.1860 C.ar  260  INH260      0.0110
      6  C17       49.1970   31.1640   44.4100 C.ar  260  INH260      0.0370
      7  C19       48.7460   29.6950   40.8780 C.3   260  INH260      0.0660
      8  C18       49.6640   28.6850   40.1120 C.3   260  INH260      0.0440
      9  C22       50.1670   29.4270   38.8480 C.3   260  INH260      0.1280
     10  N3        49.5350   30.7300   38.9310 N.am  260  INH260     -0.3380
     11  C21       48.6030   30.8780   39.9000 C.2   260  INH260      0.2330
     12  O2        47.7760   31.7660   39.9690 O.2   260  INH260     -0.2720
     13  C20       47.3620   29.1770   41.1650 C.3   260  INH260      0.0310
     14  C23       49.9780   31.8360   38.0980 C.3   260  INH260      0.1770
     15  C25       51.0720   31.3490   37.1360 C.3   260  INH260      0.0420
     16  C24       50.4930   32.9390   39.0010 C.2   260  INH260      0.2630
     17  N2        49.7950   34.0820   38.9160 N.am  260  INH260     -0.2360
     18  H23       50.0350   34.8670   39.4860 H     260  INH260      0.1970
     19  O4        51.4460   32.7400   39.7590 O.2   260  INH260     -0.2690
     20  O3        48.7340   34.1530   38.0240 O.3   260  INH260     -0.2870
     21  H24       48.6680   35.0370   37.6810 H     260  INH260      0.2440
     22  O1        51.2560   31.4360   45.8070 O.3   260  INH260     -0.3470
     23  C11       50.6480   31.0250   47.0540 C.3   260  INH260      0.2150
     24  C10       50.8780   29.5240   47.3980 C.3   260  INH260     -0.0200
     25  C5        49.7520   28.6790   47.6420 C.ar  260  INH260     -0.0010
     26  C4        48.4220   29.1880   47.5510 C.ar  260  INH260      0.0140
     27  C6        49.9470   27.2650   47.9760 C.ar  260  INH260      0.0430
     28  C3        47.3040   28.3350   47.7910 C.ar  260  INH260      0.0010
     29  C2        47.5040   26.9640   48.1200 C.ar  260  INH260      0.0020
     30  C1        48.8200   26.4260   48.2160 C.ar  260  INH260      0.0300
     31  N1        51.2480   26.7790   48.0630 N.pl3 260  INH260     -0.3590
     32  C8        52.3460   27.5690   47.8340 C.2   260  INH260      0.0060
     33  H1        51.3910   25.7990   48.3060 H     260  INH260      0.1660
     34  C7        53.6890   26.9910   47.9400 C.3   260  INH260      0.0680
     35  C9        52.1980   28.9510   47.5050 C.2   260  INH260      0.0340
@<TRIPOS>BOND
     1    15    14    1
     2    21    20    1
     3    20    17    1
     4    14    10    1
     5    14    16    1
     6     9    10    1
     7     9     8    1
     8    17    16   am
     9    17    18    1
    10    10    11   am
    11    16    19    2
    12    11    12    2
    13    11     7    1
    14     8     7    1
    15     7    13    1
    16     7     4    1
    17     4     3   ar
    18     4     5   ar
    19     3     2   ar
    20     5     6   ar
    21     2     1   ar
    22     6     1   ar
    23     1    22    1
    24    22    23    1
    25    23    24    1
    26    24    35    1
    27    24    25    1
    28    35    32    2
    29    26    25   ar
    30    26    28   ar
    31    25    27   ar
    32    28    29   ar
    33    32    34    1
    34    32    31    1
    35    27    31    1
    36    27    30   ar
    37    31    33    1
    38    29    30   ar
