@<TRIPOS>MOLECULE
./ligand/1ec1_lig.pdb
 104 107 0 0 0
SMALL
GASTEIGER

@<TRIPOS>ATOM
      1  C1         9.6990   24.1970    2.0210 C.ar  203  INH203     -0.0219
      2  C2         8.8750   25.3280    1.7780 C.ar  203  INH203     -0.0558
      3  C3         7.4870   25.2680    2.0450 C.ar  203  INH203     -0.0537
      4  C4         6.9240   24.0700    2.5610 C.ar  203  INH203     -0.0174
      5  C5         7.7450   22.9490    2.8020 C.ar  203  INH203     -0.0537
      6  C6         9.1320   23.0130    2.5310 C.ar  203  INH203     -0.0558
      7  C7        16.1290   22.2560    8.4860 C.ar  203  INH203     -0.0219
      8  C8        15.2880   21.3820    9.2560 C.ar  203  INH203     -0.0558
      9  C9        15.8300   20.2190    9.8780 C.ar  203  INH203     -0.0537
     10  C10       17.2070   19.9410    9.7230 C.ar  203  INH203     -0.0174
     11  C11       18.0500   20.8170    8.9500 C.ar  203  INH203     -0.0537
     12  C12       17.5070   21.9760    8.3300 C.ar  203  INH203     -0.0558
     13  C13       15.5360   23.4680    7.8280 C.3   203  INH203      0.0738
     14  O1        14.4830   23.0790    6.8890 O.3   203  INH203     -0.3601
     15  C14       14.9750   22.6310    5.6020 C.3   203  INH203      0.1628
     16  C15       13.9660   23.0370    4.5340 C.3   203  INH203      0.1185
     17  C16       13.6090   24.4890    4.6210 C.3   203  INH203      0.1185
     18  C17       12.2440   24.7750    3.9330 C.3   203  INH203      0.1628
     19  C18       11.1130   24.7390    4.9470 C.2   203  INH203      0.2452
     20  O2        10.8580   23.6700    5.5050 O.2   203  INH203     -0.2729
     21  N1        10.4450   25.8700    5.1860 N.am  203  INH203     -0.3015
     22  C19        9.3130   26.0080    6.1470 C.3   203  INH203      0.1017
     23  C20        9.7950   26.6620    7.5070 C.3   203  INH203     -0.0197
     24  C21        8.6220   26.8450    8.5390 C.3   203  INH203     -0.0605
     25  C22       10.9290   25.8670    8.2170 C.3   203  INH203     -0.0605
     26  C23        8.3280   26.9390    5.4710 C.2   203  INH203      0.2334
     27  O3         8.7550   27.9790    4.9110 O.2   203  INH203     -0.2738
     28  N2         7.0060   26.5550    5.5290 N.am  203  INH203     -0.3168
     29  C24        6.0290   27.4130    4.9020 C.3   203  INH203      0.0001
     30  O4        11.9830   23.7760    2.8750 O.3   203  INH203     -0.3601
     31  C25       11.1740   24.2640    1.7440 C.3   203  INH203      0.0738
     32  O5        14.7300   25.2090    4.0680 O.3   203  INH203     -0.3861
     33  O6        14.4920   22.6890    3.2060 O.3   203  INH203     -0.3861
     34  C26       15.1860   21.1770    5.4980 C.2   203  INH203      0.2452
     35  O7        14.2600   20.4330    5.8250 O.2   203  INH203     -0.2729
     36  N3        16.3780   20.7550    5.0390 N.am  203  INH203     -0.3015
     37  C27       16.7070   19.3610    4.8750 C.3   203  INH203      0.1017
     38  C28       16.7420   18.9890    3.3390 C.3   203  INH203     -0.0197
     39  C29       15.3530   19.1990    2.6090 C.3   203  INH203     -0.0605
     40  C30       17.2320   17.5220    3.0970 C.3   203  INH203     -0.0605
     41  C31       18.0850   19.2010    5.4630 C.2   203  INH203      0.2334
     42  O8        19.0310   19.9390    5.0590 O.2   203  INH203     -0.2738
     43  N4        18.1920   18.2380    6.3980 N.am  203  INH203     -0.3168
     44  C32       19.5140   18.0360    6.9900 C.3   203  INH203      0.0001
     45  S1         2.8320   24.2220    2.6690 S.2   203  INH203     -0.1045
     46  C33        3.5320   23.3990    4.0830 C.ar  203  INH203     -0.0237
     47  C34        4.8620   23.3490    4.0530 C.ar  203  INH203     -0.0470
     48  C35        5.4290   23.9890    2.8530 C.ar  203  INH203     -0.0109
     49  C36        4.4780   24.4830    2.0530 C.ar  203  INH203     -0.0166
     50  S2        19.4380   17.0920   11.6130 S.2   203  INH203     -0.1045
     51  C37       19.0340   18.6610   10.8970 C.ar  203  INH203     -0.0166
     52  C38       17.8000   18.7100   10.3870 C.ar  203  INH203     -0.0109
     53  C39       17.0800   17.4330   10.5500 C.ar  203  INH203     -0.0470
     54  C40       17.8140   16.5110   11.1690 C.ar  203  INH203     -0.0237
     55  H1         9.3110   26.2400    1.3870 H     203  INH203      0.0621
     56  H2         6.8570   26.1300    1.8570 H     203  INH203      0.0624
     57  H3         7.3120   22.0360    3.1960 H     203  INH203      0.0624
     58  H4         9.7600   22.1490    2.7160 H     203  INH203      0.0621
     59  H5        14.2330   21.6080    9.3650 H     203  INH203      0.0621
     60  H6        15.1970   19.5590   10.4600 H     203  INH203      0.0624
     61  H7        19.1050   20.5910    8.8400 H     203  INH203      0.0624
     62  H8        18.1400   22.6350    7.7470 H     203  INH203      0.0621
     63  H9        16.3250   24.0070    7.2830 H     203  INH203      0.0610
     64  H10       15.1080   24.1250    8.5990 H     203  INH203      0.0610
     65  H11       15.9350   23.1320    5.4090 H     203  INH203      0.0720
     66  H12       13.0450   22.4580    4.6990 H     203  INH203      0.0651
     67  H13       13.5070   24.7700    5.6800 H     203  INH203      0.0651
     68  H14       12.2820   25.7760    3.4780 H     203  INH203      0.0720
     69  H15       10.7250   26.6870    4.6820 H     203  INH203      0.1495
     70  H16        8.8550   25.0280    6.3470 H     203  INH203      0.0597
     71  H17       10.1880   27.6590    7.2590 H     203  INH203      0.0318
     72  H18        9.0120   27.3010    9.4610 H     203  INH203      0.0233
     73  H19        8.1830   25.8640    8.7730 H     203  INH203      0.0233
     74  H20        7.8500   27.4980    8.1050 H     203  INH203      0.0233
     75  H21       11.7670   25.7220    7.5190 H     203  INH203      0.0233
     76  H22       10.5450   24.8870    8.5380 H     203  INH203      0.0233
     77  H23       11.2770   26.4300    9.0960 H     203  INH203      0.0233
     78  H24        6.7330   25.7110    5.9900 H     203  INH203      0.1484
     79  H25        5.0260   26.9800    5.0290 H     203  INH203      0.0426
     80  H26        6.2560   27.5040    3.8290 H     203  INH203      0.0426
     81  H27        6.0610   28.4080    5.3700 H     203  INH203      0.0426
     82  H28       11.4480   25.3100    1.5400 H     203  INH203      0.0610
     83  H29       11.3950   23.6480    0.8600 H     203  INH203      0.0610
     84  H30       14.8340   24.9780    3.1520 H     203  INH203      0.2100
     85  H31       13.8630   22.9420    2.5410 H     203  INH203      0.2100
     86  H32       17.0670   21.4390    4.8010 H     203  INH203      0.1495
     87  H33       15.9800   18.7240    5.4000 H     203  INH203      0.0597
     88  H34       17.4680   19.6650    2.8650 H     203  INH203      0.0318
     89  H35       15.4500   18.9220    1.5490 H     203  INH203      0.0233
     90  H36       15.0540   20.2550    2.6860 H     203  INH203      0.0233
     91  H37       14.5890   18.5660    3.0850 H     203  INH203      0.0233
     92  H38       18.1970   17.3700    3.6020 H     203  INH203      0.0233
     93  H39       17.3520   17.3490    2.0170 H     203  INH203      0.0233
     94  H40       16.4910   16.8160    3.5020 H     203  INH203      0.0233
     95  H41       17.4050   17.6870    6.6750 H     203  INH203      0.1484
     96  H42       19.4630   17.2260    7.7330 H     203  INH203      0.0426
     97  H43       19.8420   18.9640    7.4810 H     203  INH203      0.0426
     98  H44       20.2310   17.7650    6.2010 H     203  INH203      0.0426
     99  H45        2.9340   22.9790    4.8900 H     203  INH203      0.0693
    100  H46        5.4660   22.8850    4.8320 H     203  INH203      0.0629
    101  H47        4.6920   24.9950    1.1160 H     203  INH203      0.0699
    102  H48       19.7240   19.5030   10.8750 H     203  INH203      0.0699
    103  H49       16.0620   17.2630   10.2030 H     203  INH203      0.0629
    104  H50       17.4580   15.5040   11.3820 H     203  INH203      0.0693
@<TRIPOS>BOND
     1     1    31    1
     2     1     6   ar
     3     1     2   ar
     4     2    55    1
     5     2     3   ar
     6     3    56    1
     7     3     4   ar
     8     4    48    1
     9     4     5   ar
    10     5    57    1
    11     5     6   ar
    12     6    58    1
    13     7     8   ar
    14     7    13    1
    15     7    12   ar
    16     8     9   ar
    17     8    59    1
    18     9    10   ar
    19     9    60    1
    20    10    52    1
    21    10    11   ar
    22    11    12   ar
    23    11    61    1
    24    12    62    1
    25    13    64    1
    26    13    63    1
    27    13    14    1
    28    14    15    1
    29    15    65    1
    30    15    34    1
    31    15    16    1
    32    16    66    1
    33    16    33    1
    34    16    17    1
    35    17    67    1
    36    17    32    1
    37    17    18    1
    38    18    68    1
    39    18    30    1
    40    18    19    1
    41    19    21   am
    42    19    20    2
    43    21    69    1
    44    21    22    1
    45    22    70    1
    46    22    26    1
    47    22    23    1
    48    23    71    1
    49    23    25    1
    50    23    24    1
    51    24    74    1
    52    24    73    1
    53    24    72    1
    54    25    77    1
    55    25    76    1
    56    25    75    1
    57    26    28   am
    58    26    27    2
    59    28    78    1
    60    28    29    1
    61    29    81    1
    62    29    80    1
    63    29    79    1
    64    30    31    1
    65    31    83    1
    66    31    82    1
    67    32    84    1
    68    33    85    1
    69    34    36   am
    70    34    35    2
    71    36    86    1
    72    36    37    1
    73    37    87    1
    74    37    41    1
    75    37    38    1
    76    38    88    1
    77    38    40    1
    78    38    39    1
    79    39    91    1
    80    39    90    1
    81    39    89    1
    82    40    94    1
    83    40    93    1
    84    40    92    1
    85    41    43   am
    86    41    42    2
    87    43    95    1
    88    43    44    1
    89    44    98    1
    90    44    97    1
    91    44    96    1
    92    45    46   ar
    93    45    49   ar
    94    46    47   ar
    95    46    99    1
    96    47    48   ar
    97    47   100    1
    98    48    49   ar
    99    49   101    1
   100    50    54   ar
   101    50    51   ar
   102    51   102    1
   103    51    52   ar
   104    52    53   ar
   105    53   103    1
   106    53    54   ar
   107    54   104    1
