@<TRIPOS>MOLECULE
/tmp/ewbell/vina_1ec1_1ec1_lig/vina/vina5.pdbqt
 60 63 0 0 0
SMALL
GASTEIGER

@<TRIPOS>ATOM
      1  C15       19.1880   16.1750    5.0010 C.3   203  INH203      0.1880
      2  C14       19.9050   15.0480    5.7340 C.3   203  INH203      0.2440
      3  O1        18.9390   14.3520    6.5590 O.3   203  INH203     -0.3690
      4  C13       19.5350   13.4610    7.5540 C.3   203  INH203      0.2070
      5  C7        19.2760   13.9710    8.9410 C.ar  203  INH203     -0.0350
      6  C8        19.8740   13.3060   10.0660 C.ar  203  INH203      0.0100
      7  C9        19.6510   13.7840   11.3910 C.ar  203  INH203      0.0130
      8  C10       18.8330   14.9210   11.5790 C.ar  203  INH203     -0.0250
      9  C11       18.2340   15.5880   10.4510 C.ar  203  INH203      0.0130
     10  C12       18.4590   15.1110    9.1290 C.ar  203  INH203      0.0100
     11  C38       18.5790   15.4350   12.9850 C.ar  203  INH203     -0.0190
     12  C37       19.3560   16.3290   13.6020 C.ar  203  INH203      0.0610
     13  S2        18.7990   16.7410   15.2330 S.2   203  INH203     -0.1130
     14  C40       17.4380   15.6120   15.0150 C.ar  203  INH203      0.0500
     15  C39       17.4430   15.0120   13.8260 C.ar  203  INH203      0.0200
     16  C26       20.5740   14.2050    4.7290 C.2   203  INH203      0.2500
     17  N3        21.9180   14.1430    4.7660 N.am  203  INH203     -0.3450
     18  H32       22.3880   13.5740    4.0910 H     203  INH203      0.1630
     19  O7        19.8700   13.6150    3.9070 O.2   203  INH203     -0.2710
     20  C27       22.7100   14.8590    5.7350 C.3   203  INH203      0.1800
     21  C31       23.7330   15.6210    4.9330 C.2   203  INH203      0.2400
     22  N4        23.6480   15.4510    3.6000 N.am  203  INH203     -0.3640
     23  H41       22.9590   14.8540    3.1920 H     203  INH203      0.1610
     24  C32       24.6120   16.1830    2.7790 C.3   203  INH203      0.1490
     25  O8        24.5750   16.3570    5.5270 O.2   203  INH203     -0.2710
     26  C28       23.4430   13.8400    6.6960 C.3   203  INH203      0.0090
     27  C30       23.1180   14.1110    8.2030 C.3   203  INH203      0.0120
     28  C29       23.1300   12.3250    6.3630 C.3   203  INH203      0.0120
     29  O6        20.0540   16.6920    3.9300 O.3   203  INH203     -0.3900
     30  H31       20.8530   17.0360    4.3090 H     203  INH203      0.2100
     31  C16       18.7550   17.2650    5.9320 C.3   203  INH203      0.1880
     32  O5        19.8350   17.4410    6.8710 O.3   203  INH203     -0.3900
     33  H30       20.1380   18.3410    6.8410 H     203  INH203      0.2100
     34  C17       18.3540   18.5480    5.1490 C.3   203  INH203      0.2440
     35  O4        16.9080   18.5300    4.8410 O.3   203  INH203     -0.3690
     36  C25       16.4920   19.4310    3.7520 C.3   203  INH203      0.2070
     37  C1        15.3770   20.3520    4.1600 C.ar  203  INH203     -0.0350
     38  C6        14.7620   20.1980    5.4170 C.ar  203  INH203      0.0100
     39  C5        13.7180   21.0670    5.8090 C.ar  203  INH203      0.0130
     40  C4        13.2870   22.0930    4.9410 C.ar  203  INH203     -0.0250
     41  C3        13.8990   22.2540    3.6690 C.ar  203  INH203      0.0130
     42  C2        14.9460   21.3840    3.2830 C.ar  203  INH203      0.0100
     43  C35       12.1570   23.0230    5.3720 C.ar  203  INH203     -0.0190
     44  C34       11.8030   23.2850    6.7780 C.ar  203  INH203      0.0200
     45  C33       10.7790   24.1260    6.9030 C.ar  203  INH203      0.0500
     46  S1        10.1400   24.6850    5.3380 S.2   203  INH203     -0.1130
     47  C36       11.3680   23.6910    4.5250 C.ar  203  INH203      0.0610
     48  C18       18.6800   19.7940    5.9550 C.2   203  INH203      0.2500
     49  N1        18.0480   19.9750    7.1170 N.am  203  INH203     -0.3450
     50  H15       17.3900   19.2760    7.3990 H     203  INH203      0.1630
     51  O2        19.5110   20.5840    5.5050 O.2   203  INH203     -0.2710
     52  C19       18.2510   21.1370    8.0290 C.3   203  INH203      0.1800
     53  C23       19.2150   20.6490    9.0890 C.2   203  INH203      0.2400
     54  N2        18.9110   19.4320    9.6600 N.am  203  INH203     -0.3640
     55  H24       18.1010   18.9180    9.3780 H     203  INH203      0.1610
     56  C24       19.8010   18.9240   10.6760 C.3   203  INH203      0.1490
     57  O3        20.2100   21.3570    9.3850 O.2   203  INH203     -0.2710
     58  C20       16.8910   21.5630    8.7220 C.3   203  INH203      0.0090
     59  C22       15.8400   20.4160    8.7950 C.3   203  INH203      0.0120
     60  C21       16.2090   22.7900    8.0140 C.3   203  INH203      0.0120
@<TRIPOS>BOND
     1    24    22    1
     2    23    22    1
     3    42    41   ar
     4    42    37   ar
     5    22    21   am
     6    41    40   ar
     7    36    37    1
     8    36    35    1
     9    19    16    2
    10    29    30    1
    11    29     1    1
    12    18    17    1
    13    37    38   ar
    14    47    46   ar
    15    47    43   ar
    16    16    17   am
    17    16     2    1
    18    17    20    1
    19    35    34    1
    20    21    25    2
    21    21    20    1
    22    40    43    1
    23    40    39   ar
    24     1     2    1
    25     1    31    1
    26    34    31    1
    27    34    48    1
    28    46    45   ar
    29    43    44   ar
    30    38    39   ar
    31    51    48    2
    32     2     3    1
    33    20    26    1
    34    31    32    1
    35    48    49   am
    36    28    26    1
    37     3     4    1
    38    26    27    1
    39    44    45   ar
    40    33    32    1
    41    49    50    1
    42    49    52    1
    43     4     5    1
    44    60    58    1
    45    52    58    1
    46    52    53    1
    47    58    59    1
    48     5    10   ar
    49     5     6   ar
    50    53    57    2
    51    53    54   am
    52    10     9   ar
    53    55    54    1
    54    54    56    1
    55     6     7   ar
    56     9     8   ar
    57     7     8   ar
    58     8    11    1
    59    11    12   ar
    60    11    15   ar
    61    12    13   ar
    62    15    14   ar
    63    14    13   ar
