@<TRIPOS>MOLECULE
/tmp/ewbell/vina_1ec1_1ec1_lig/vina/vina3.pdbqt
 60 63 0 0 0
SMALL
GASTEIGER

@<TRIPOS>ATOM
      1  C15       19.0320   18.2920    8.3050 C.3   203  INH203      0.1880
      2  C14       17.9970   19.2800    7.7780 C.3   203  INH203      0.2440
      3  O1        17.3750   19.9360    8.9110 O.3   203  INH203     -0.3690
      4  C13       17.5160   21.3920    8.9080 C.3   203  INH203      0.2070
      5  C7        16.2660   22.0410    8.3890 C.ar  203  INH203     -0.0350
      6  C8        15.0030   21.3730    8.5380 C.ar  203  INH203      0.0100
      7  C9        13.8030   21.9790    8.0630 C.ar  203  INH203      0.0130
      8  C10       13.8770   23.2470    7.4450 C.ar  203  INH203     -0.0250
      9  C11       15.1430   23.9180    7.2960 C.ar  203  INH203      0.0130
     10  C12       16.3390   23.3120    7.7720 C.ar  203  INH203      0.0100
     11  C38       12.6080   23.9010    6.9260 C.ar  203  INH203     -0.0190
     12  C37       11.5950   24.2840    7.7090 C.ar  203  INH203      0.0610
     13  S2        10.2560   25.0250    6.8150 S.2   203  INH203     -0.1130
     14  C40       11.1710   24.7750    5.3070 C.ar  203  INH203      0.0500
     15  C39       12.3520   24.1940    5.5030 C.ar  203  INH203      0.0200
     16  C26       18.6740   20.1890    6.8380 C.2   203  INH203      0.2500
     17  N3        18.3050   20.1310    5.5450 N.am  203  INH203     -0.3450
     18  H32       18.7540   20.7430    4.8940 H     203  INH203      0.1630
     19  O7        19.5430   20.9410    7.2840 O.2   203  INH203     -0.2710
     20  C27       17.2930   19.2280    5.0580 C.3   203  INH203      0.1800
     21  C31       18.0420   18.1260    4.3550 C.2   203  INH203      0.2400
     22  N4        18.1030   16.9630    5.0300 N.am  203  INH203     -0.3640
     23  H41       17.6850   16.8590    5.9320 H     203  INH203      0.1610
     24  C32       18.8080   15.8590    4.3810 C.3   203  INH203      0.1490
     25  O8        18.5450   18.3380    3.2110 O.2   203  INH203     -0.2710
     26  C28       16.3540   19.9710    4.0260 C.3   203  INH203      0.0090
     27  C30       15.3000   19.0070    3.3860 C.3   203  INH203      0.0120
     28  C29       15.6060   21.2220    4.6430 C.3   203  INH203      0.0120
     29  O6        19.9400   17.9070    7.2140 O.3   203  INH203     -0.3900
     30  H31       20.0440   16.9630    7.2080 H     203  INH203      0.2100
     31  C16       18.3950   17.0950    8.9390 C.3   203  INH203      0.1880
     32  O5        18.2630   16.1120    7.8920 O.3   203  INH203     -0.3900
     33  H30       18.1870   15.2460    8.2770 H     203  INH203      0.2100
     34  C17       19.1990   16.6210   10.1830 C.3   203  INH203      0.2440
     35  O4        18.4970   15.5070   10.8550 O.3   203  INH203     -0.3690
     36  C25       18.2770   15.6910   12.3000 C.3   203  INH203      0.2070
     37  C1        16.8240   15.6120   12.6750 C.ar  203  INH203     -0.0350
     38  C6        15.8360   15.9900   11.7470 C.ar  203  INH203      0.0100
     39  C5        14.4670   15.9090   12.0930 C.ar  203  INH203      0.0130
     40  C4        14.0860   15.4500   13.3720 C.ar  203  INH203     -0.0250
     41  C3        15.0760   15.0690   14.3160 C.ar  203  INH203      0.0130
     42  C2        16.4440   15.1490   13.9640 C.ar  203  INH203      0.0100
     43  C35       12.6070   15.3710   13.7360 C.ar  203  INH203     -0.0190
     44  C34       11.7140   16.5410   13.7970 C.ar  203  INH203      0.0200
     45  C33       10.4690   16.2210   14.1430 C.ar  203  INH203      0.0500
     46  S1        10.2500   14.4780   14.4300 S.2   203  INH203     -0.1130
     47  C36       11.9680   14.2370   14.0440 C.ar  203  INH203      0.0610
     48  C18       20.5920   16.1670    9.7810 C.2   203  INH203      0.2500
     49  N1        20.7010   15.1190    8.9620 N.am  203  INH203     -0.3450
     50  H15       19.8540   14.6850    8.6520 H     203  INH203      0.1630
     51  O2        21.5620   16.7820   10.2270 O.2   203  INH203     -0.2710
     52  C19       21.9870   14.5470    8.4700 C.3   203  INH203      0.1800
     53  C23       21.9820   14.7800    6.9740 C.2   203  INH203      0.2400
     54  N2        22.1600   13.6580    6.1940 N.am  203  INH203     -0.3640
     55  H24       22.2830   12.7570    6.6060 H     203  INH203      0.1610
     56  C24       22.1620   13.8300    4.7600 C.3   203  INH203      0.1490
     57  O3        21.8210   15.9470    6.5360 O.2   203  INH203     -0.2710
     58  C20       22.0640   12.9890    8.7520 C.3   203  INH203      0.0090
     59  C22       20.8410   12.4360    9.5400 C.3   203  INH203      0.0120
     60  C21       23.3630   12.5790    9.5370 C.3   203  INH203      0.0120
@<TRIPOS>BOND
     1    25    21    2
     2    27    26    1
     3    26    28    1
     4    26    20    1
     5    21    22   am
     6    21    20    1
     7    24    22    1
     8    56    54    1
     9    18    17    1
    10    22    23    1
    11    20    17    1
    12    14    15   ar
    13    14    13   ar
    14    15    11   ar
    15    17    16   am
    16    54    55    1
    17    54    53   am
    18    57    53    2
    19    13    12   ar
    20    16    19    2
    21    16     2    1
    22    11     8    1
    23    11    12   ar
    24    53    52    1
    25    30    29    1
    26    29     1    1
    27     9     8   ar
    28     9    10   ar
    29     8     7   ar
    30    10     5   ar
    31     2     1    1
    32     2     3    1
    33    32    33    1
    34    32    31    1
    35     7     6   ar
    36     1    31    1
    37     5     6   ar
    38     5     4    1
    39    52    58    1
    40    52    49    1
    41    50    49    1
    42    58    60    1
    43    58    59    1
    44     4     3    1
    45    31    34    1
    46    49    48   am
    47    48    34    1
    48    48    51    2
    49    34    35    1
    50    35    36    1
    51    38    39   ar
    52    38    37   ar
    53    39    40   ar
    54    36    37    1
    55    37    42   ar
    56    40    43    1
    57    40    41   ar
    58    43    44   ar
    59    43    47   ar
    60    44    45   ar
    61    42    41   ar
    62    47    46   ar
    63    45    46   ar
