@<TRIPOS>MOLECULE
/tmp/ewbell/vina_1ec1_1ec1_lig/vina/vina4.pdbqt
 60 63 0 0 0
SMALL
GASTEIGER

@<TRIPOS>ATOM
      1  C15        4.7740   25.9760    5.2340 C.3   203  INH203      0.1880
      2  C14        3.2890   26.3130    5.1750 C.3   203  INH203      0.2440
      3  O1         2.5690   25.1330    4.7420 O.3   203  INH203     -0.3690
      4  C13        3.0590   24.5630    3.4860 C.3   203  INH203      0.2070
      5  C7         3.0340   23.0630    3.5430 C.ar  203  INH203     -0.0350
      6  C8         4.0610   22.3620    4.2630 C.ar  203  INH203      0.0100
      7  C9         4.0480   20.9380    4.3390 C.ar  203  INH203      0.0130
      8  C10        3.0090   20.2290    3.6960 C.ar  203  INH203     -0.0250
      9  C11        1.9780   20.9320    2.9750 C.ar  203  INH203      0.0130
     10  C12        1.9920   22.3530    2.9010 C.ar  203  INH203      0.0100
     11  C38        2.9870   18.7120    3.7610 C.ar  203  INH203     -0.0190
     12  C37        2.0920   17.9530    3.1220 C.ar  203  INH203      0.0610
     13  S2         2.3290   16.2160    3.3830 S.2   203  INH203     -0.1130
     14  C40        3.7250   16.5980    4.4210 C.ar  203  INH203      0.0500
     15  C39        3.9530   17.9050    4.5300 C.ar  203  INH203      0.0200
     16  C26        2.8870   26.8270    6.4950 C.2   203  INH203      0.2500
     17  N3         2.6410   28.1460    6.5990 N.am  203  INH203     -0.3450
     18  H32        2.3660   28.5110    7.4880 H     203  INH203      0.1630
     19  O7         2.8090   26.0260    7.4290 O.2   203  INH203     -0.2710
     20  C27        2.7570   29.0550    5.4860 C.3   203  INH203      0.1800
     21  C31        3.6760   30.1520    5.9570 C.2   203  INH203      0.2400
     22  N4         3.2190   31.4010    5.7510 N.am  203  INH203     -0.3640
     23  H41        2.3380   31.5700    5.3090 H     203  INH203      0.1610
     24  C32        4.0710   32.5000    6.2050 C.3   203  INH203      0.1490
     25  O8         4.7780   29.8560    6.5070 O.2   203  INH203     -0.2710
     26  C28        1.3410   29.6660    5.1360 C.3   203  INH203      0.0090
     27  C30        0.7660   29.0940    3.7970 C.3   203  INH203      0.0120
     28  C29        0.2710   29.4730    6.2850 C.3   203  INH203      0.0120
     29  O6         5.3020   26.3180    6.5630 O.3   203  INH203     -0.3900
     30  H31        5.0710   27.2160    6.7720 H     203  INH203      0.2100
     31  C16        5.5480   26.6510    4.1440 C.3   203  INH203      0.1880
     32  O5         5.6840   28.0290    4.5460 O.3   203  INH203     -0.3900
     33  H30        5.9790   28.5480    3.8060 H     203  INH203      0.2100
     34  C17        6.8900   25.9150    3.8680 C.3   203  INH203      0.2440
     35  O4         7.1610   25.8710    2.4150 O.3   203  INH203     -0.3690
     36  C25        7.5520   24.5490    1.8950 C.3   203  INH203      0.2070
     37  C1         8.9260   24.1370    2.3440 C.ar  203  INH203     -0.0350
     38  C6        10.0480   24.8940    1.9590 C.ar  203  INH203      0.0100
     39  C5        11.3420   24.5160    2.3870 C.ar  203  INH203      0.0130
     40  C4        11.5140   23.3760    3.2000 C.ar  203  INH203     -0.0250
     41  C3        10.3870   22.6030    3.5910 C.ar  203  INH203      0.0130
     42  C2         9.0940   22.9890    3.1630 C.ar  203  INH203      0.0100
     43  C35       12.9140   22.9730    3.6530 C.ar  203  INH203     -0.0190
     44  C34       13.8480   23.8860    4.3340 C.ar  203  INH203      0.0200
     45  C33       15.0110   23.3090    4.6250 C.ar  203  INH203      0.0500
     46  S1        15.0960   21.6080    4.1070 S.2   203  INH203     -0.1130
     47  C36       13.4420   21.7580    3.4750 C.ar  203  INH203      0.0610
     48  C18        8.0410   26.6130    4.5720 C.2   203  INH203      0.2500
     49  N1         8.5280   26.0580    5.6840 N.am  203  INH203     -0.3450
     50  H15        8.1080   25.2060    5.9980 H     203  INH203      0.1630
     51  O2         8.4770   27.6600    4.0890 O.2   203  INH203     -0.2710
     52  C19        9.6520   26.6100    6.4940 C.3   203  INH203      0.1800
     53  C23       10.7480   25.5670    6.4170 C.2   203  INH203      0.2400
     54  N2        10.4760   24.3680    7.0400 N.am  203  INH203     -0.3640
     55  H24        9.6060   24.2140    7.5070 H     203  INH203      0.1610
     56  C24       11.4900   23.3420    6.9950 C.3   203  INH203      0.1490
     57  O3        11.8130   25.8410    5.8100 O.2   203  INH203     -0.2710
     58  C20        9.2250   26.8020    8.0080 C.3   203  INH203      0.0090
     59  C22        7.9930   27.7360    8.1960 C.3   203  INH203      0.0120
     60  C21       10.3910   27.3650    8.8990 C.3   203  INH203      0.0120
@<TRIPOS>BOND
     1    36    37    1
     2    36    35    1
     3    38    37   ar
     4    38    39   ar
     5    37    42   ar
     6    39    40   ar
     7    35    34    1
     8    10     9   ar
     9    10     5   ar
    10     9     8   ar
    11    12    13   ar
    12    12    11   ar
    13    42    41   ar
    14    40    41   ar
    15    40    43    1
    16    13    14   ar
    17    47    43   ar
    18    47    46   ar
    19     4     5    1
    20     4     3    1
    21     5     6   ar
    22    43    44   ar
    23     8    11    1
    24     8     7   ar
    25    11    15   ar
    26    27    26    1
    27    33    32    1
    28    34    31    1
    29    34    48    1
    30    51    48    2
    31    46    45   ar
    32    31    32    1
    33    31     1    1
    34     6     7   ar
    35    44    45   ar
    36    14    15   ar
    37    48    49   am
    38     3     2    1
    39    26    20    1
    40    26    28    1
    41     2     1    1
    42     2    16    1
    43     1    29    1
    44    23    22    1
    45    20    21    1
    46    20    17    1
    47    49    50    1
    48    49    52    1
    49    22    21   am
    50    22    24    1
    51    57    53    2
    52    21    25    2
    53    53    52    1
    54    53    54   am
    55    52    58    1
    56    16    17   am
    57    16    19    2
    58    29    30    1
    59    17    18    1
    60    56    54    1
    61    54    55    1
    62    58    59    1
    63    58    60    1
