@<TRIPOS>MOLECULE
/tmp/ewbell/vina_1ec1_1ec1_lig/vina/vina2.pdbqt
 60 63 0 0 0
SMALL
GASTEIGER

@<TRIPOS>ATOM
      1  C15       18.6210   16.5620    7.3790 C.3   203  INH203      0.1880
      2  C14       19.5420   15.6970    8.2320 C.3   203  INH203      0.2440
      3  O1        19.0630   15.7300    9.5990 O.3   203  INH203     -0.3690
      4  C13       17.8740   16.5600    9.7940 C.3   203  INH203      0.2070
      5  C7        17.1350   16.1390   11.0310 C.ar  203  INH203     -0.0350
      6  C8        15.7050   16.2660   11.0820 C.ar  203  INH203      0.0100
      7  C9        14.9830   15.8600   12.2430 C.ar  203  INH203      0.0130
      8  C10       15.6980   15.3310   13.3410 C.ar  203  INH203     -0.0250
      9  C11       17.1320   15.2030   13.2900 C.ar  203  INH203      0.0130
     10  C12       17.8500   15.6080   12.1300 C.ar  203  INH203      0.0100
     11  C38       14.9440   14.9030   14.5880 C.ar  203  INH203     -0.0190
     12  C37       13.6340   14.6410   14.6120 C.ar  203  INH203      0.0610
     13  S2        13.0420   14.1560   16.2100 S.2   203  INH203     -0.1130
     14  C40       14.6980   14.3360   16.8390 C.ar  203  INH203      0.0500
     15  C39       15.5710   14.7210   15.9110 C.ar  203  INH203      0.0200
     16  C26       19.5890   14.3540    7.6300 C.2   203  INH203      0.2500
     17  N3        20.6790   14.0350    6.9090 N.am  203  INH203     -0.3450
     18  H32       20.7280   13.1260    6.4940 H     203  INH203      0.1630
     19  O7        18.6270   13.6040    7.8110 O.2   203  INH203     -0.2710
     20  C27       21.7800   14.9440    6.7070 C.3   203  INH203      0.1800
     21  C31       21.8950   15.1110    5.2140 C.2   203  INH203      0.2400
     22  N4        23.1420   15.3490    4.7660 N.am  203  INH203     -0.3640
     23  H41       23.9190   15.4150    5.3920 H     203  INH203      0.1610
     24  C32       23.3060   15.5040    3.3210 C.3   203  INH203      0.1490
     25  O8        20.8610   15.0130    4.4890 O.2   203  INH203     -0.2710
     26  C28       23.1150   14.3140    7.2730 C.3   203  INH203      0.0090
     27  C30       23.4130   14.7800    8.7380 C.3   203  INH203      0.0120
     28  C29       23.1370   12.7320    7.2170 C.3   203  INH203      0.0120
     29  O6        18.1630   15.7900    6.2150 O.3   203  INH203     -0.3900
     30  H31       18.8530   15.7640    5.5620 H     203  INH203      0.2100
     31  C16       19.2770   17.8440    6.9660 C.3   203  INH203      0.1880
     32  O5        19.7870   17.6200    5.6360 O.3   203  INH203     -0.3900
     33  H30       20.6880   17.9200    5.5870 H     203  INH203      0.2100
     34  C17       18.2980   19.0450    7.0970 C.3   203  INH203      0.2440
     35  O4        18.9040   20.1130    7.9210 O.3   203  INH203     -0.3690
     36  C25       18.0920   20.5480    9.0710 C.3   203  INH203      0.2070
     37  C1        16.8590   21.2990    8.6530 C.ar  203  INH203     -0.0350
     38  C6        16.9780   22.5190    7.9610 C.ar  203  INH203      0.0100
     39  C5        15.8210   23.2240    7.5580 C.ar  203  INH203      0.0130
     40  C4        14.5400   22.7090    7.8510 C.ar  203  INH203     -0.0250
     41  C3        14.4090   21.4800    8.5510 C.ar  203  INH203      0.0130
     42  C2        15.5710   20.7770    8.9490 C.ar  203  INH203      0.0100
     43  C35       13.2970   23.4800    7.4160 C.ar  203  INH203     -0.0190
     44  C34       13.2620   24.9410    7.2330 C.ar  203  INH203      0.0200
     45  C33       12.0650   25.3840    6.8560 C.ar  203  INH203      0.0500
     46  S1        10.8620   24.0840    6.6830 S.2   203  INH203     -0.1130
     47  C36       12.1130   22.9150    7.1610 C.ar  203  INH203      0.0610
     48  C18       17.9470   19.6040    5.7290 C.2   203  INH203      0.2500
     49  N1        16.6800   19.5120    5.3170 N.am  203  INH203     -0.3450
     50  H15       16.0230   19.0780    5.9350 H     203  INH203      0.1630
     51  O2        18.8420   20.1190    5.0570 O.2   203  INH203     -0.2710
     52  C19       16.1680   20.0100    4.0090 C.3   203  INH203      0.1800
     53  C23       14.8800   20.7370    4.3350 C.2   203  INH203      0.2400
     54  N2        14.5500   21.7760    3.4920 N.am  203  INH203     -0.3640
     55  H24       15.1350   22.0200    2.7200 H     203  INH203      0.1610
     56  C24       13.3300   22.4990    3.7620 C.3   203  INH203      0.1490
     57  O3        14.2010   20.3660    5.3250 O.2   203  INH203     -0.2710
     58  C20       15.8500   18.8080    3.0260 C.3   203  INH203      0.0090
     59  C22       15.2120   17.5760    3.7300 C.3   203  INH203      0.0120
     60  C21       17.1230   18.3080    2.2500 C.3   203  INH203      0.0120
@<TRIPOS>BOND
     1    60    58    1
     2    55    54    1
     3    58    59    1
     4    58    52    1
     5    24    22    1
     6    54    56    1
     7    54    53   am
     8    52    53    1
     9    52    49    1
    10    53    57    2
    11    25    21    2
    12    22    21   am
    13    22    23    1
    14    51    48    2
    15    21    20    1
    16    49    48   am
    17    49    50    1
    18    30    29    1
    19    33    32    1
    20    32    31    1
    21    48    34    1
    22    29     1    1
    23    18    17    1
    24    46    45   ar
    25    46    47   ar
    26    20    17    1
    27    20    26    1
    28    45    44   ar
    29    17    16   am
    30    31    34    1
    31    31     1    1
    32    34    35    1
    33    47    43   ar
    34    28    26    1
    35    44    43   ar
    36    26    27    1
    37     1     2    1
    38    43    40    1
    39    39    40   ar
    40    39    38   ar
    41    16    19    2
    42    16     2    1
    43    40    41   ar
    44    35    36    1
    45    38    37   ar
    46     2     3    1
    47    41    42   ar
    48    37    42   ar
    49    37    36    1
    50     3     4    1
    51     4     5    1
    52     5     6   ar
    53     5    10   ar
    54     6     7   ar
    55    10     9   ar
    56     7     8   ar
    57     9     8   ar
    58     8    11    1
    59    11    12   ar
    60    11    15   ar
    61    12    13   ar
    62    15    14   ar
    63    13    14   ar
