@<TRIPOS>MOLECULE
/tmp/ewbell/vina_1ec1_1ec1_lig/vina/vina1.pdbqt
 60 63 0 0 0
SMALL
GASTEIGER

@<TRIPOS>ATOM
      1  C15       13.9080   22.6550    4.4760 C.3   203  INH203      0.1880
      2  C14       14.8050   22.0440    5.5460 C.3   203  INH203      0.2440
      3  O1        14.7240   22.8680    6.7350 O.3   203  INH203     -0.3690
      4  C13       16.0230   23.1850    7.3310 C.3   203  INH203      0.2070
      5  C7        16.4880   22.0600    8.2090 C.ar  203  INH203     -0.0350
      6  C8        15.5210   21.2190    8.8590 C.ar  203  INH203      0.0100
      7  C9        15.9430   20.1380    9.6870 C.ar  203  INH203      0.0130
      8  C10       17.3270   19.9080    9.8570 C.ar  203  INH203     -0.0250
      9  C11       18.2960   20.7500    9.2050 C.ar  203  INH203      0.0130
     10  C12       17.8730   21.8280    8.3780 C.ar  203  INH203      0.0100
     11  C38       17.7910   18.7660   10.7440 C.ar  203  INH203     -0.0190
     12  C37       17.3200   17.5180   10.6570 C.ar  203  INH203      0.0610
     13  S2        18.0610   16.4040   11.8190 S.2   203  INH203     -0.1130
     14  C40       19.0520   17.7530   12.4280 C.ar  203  INH203      0.0500
     15  C39       18.8170   18.9000   11.7950 C.ar  203  INH203      0.0200
     16  C26       14.3910   20.6440    5.7410 C.2   203  INH203      0.2500
     17  N3        15.2820   19.6850    5.4290 N.am  203  INH203     -0.3450
     18  H32       15.0170   18.7290    5.5560 H     203  INH203      0.1630
     19  O7        13.2540   20.4300    6.1660 O.2   203  INH203     -0.2710
     20  C27       16.5990   19.9730    4.9190 C.3   203  INH203      0.1800
     21  C31       16.5820   19.5220    3.4820 C.2   203  INH203      0.2400
     22  N4        15.3700   19.5410    2.8980 N.am  203  INH203     -0.3640
     23  H41       14.5520   19.8260    3.3970 H     203  INH203      0.1610
     24  C32       15.3050   19.1250    1.4970 C.3   203  INH203      0.1490
     25  O8        17.6620   19.1740    2.9190 O.2   203  INH203     -0.2710
     26  C28       17.6830   19.1460    5.7200 C.3   203  INH203      0.0090
     27  C30       17.8740   17.7050    5.1390 C.3   203  INH203      0.0120
     28  C29       19.0910   19.8650    5.7990 C.3   203  INH203      0.0120
     29  O6        14.4950   22.4140    3.1490 O.3   203  INH203     -0.3900
     30  H31       13.8080   22.1680    2.5410 H     203  INH203      0.2100
     31  C16       13.6640   24.1140    4.7130 C.3   203  INH203      0.1880
     32  O5        14.8420   24.7970    4.2400 O.3   203  INH203     -0.3900
     33  H30       14.7520   24.9780    3.3110 H     203  INH203      0.2100
     34  C17       12.3310   24.5750    4.0570 C.3   203  INH203      0.2440
     35  O4        11.9480   23.6510    2.9680 O.3   203  INH203     -0.3690
     36  C25       11.1710   24.2640    1.8770 C.3   203  INH203      0.2070
     37  C1         9.6900   24.2140    2.1270 C.ar  203  INH203     -0.0350
     38  C6         9.0930   23.0230    2.5800 C.ar  203  INH203      0.0100
     39  C5         7.7010   22.9740    2.8250 C.ar  203  INH203      0.0130
     40  C4         6.9040   24.1200    2.6150 C.ar  203  INH203     -0.0250
     41  C3         7.4980   25.3260    2.1550 C.ar  203  INH203      0.0130
     42  C2         8.8910   25.3700    1.9140 C.ar  203  INH203      0.0100
     43  C35        5.4030   24.0560    2.8780 C.ar  203  INH203     -0.0190
     44  C34        4.7690   23.0680    3.7700 C.ar  203  INH203      0.0200
     45  C33        3.4470   23.2080    3.8350 C.ar  203  INH203      0.0500
     46  S1         2.8350   24.5420    2.8280 S.2   203  INH203     -0.1130
     47  C36        4.5060   24.8800    2.3270 C.ar  203  INH203      0.0610
     48  C18       11.2150   24.6270    5.0860 C.2   203  INH203      0.2500
     49  N1        10.6150   25.7990    5.3060 N.am  203  INH203     -0.3450
     50  H15       10.9340   26.5880    4.7780 H     203  INH203      0.1630
     51  O2        10.9100   23.5880    5.6750 O.2   203  INH203     -0.2710
     52  C19        9.5060   26.0240    6.2770 C.3   203  INH203      0.1800
     53  C23        8.4870   26.8600    5.5310 C.2   203  INH203      0.2400
     54  N2         7.1800   26.4340    5.6260 N.am  203  INH203     -0.3640
     55  H24        6.9380   25.6230    6.1580 H     203  INH203      0.1610
     56  C24        6.1710   27.2000    4.9320 C.3   203  INH203      0.1490
     57  O3         8.8740   27.8650    4.8850 O.2   203  INH203     -0.2710
     58  C20       10.0110   26.8300    7.5440 C.3   203  INH203      0.0090
     59  C22       11.1500   26.1160    8.3270 C.3   203  INH203      0.0120
     60  C21        8.8540   27.1420    8.5630 C.3   203  INH203      0.0120
@<TRIPOS>BOND
     1    24    22    1
     2    36    37    1
     3    36    35    1
     4    42    37   ar
     5    42    41   ar
     6    37    38   ar
     7    41    40   ar
     8    47    46   ar
     9    47    43   ar
    10    30    29    1
    11    38    39   ar
    12    40    39   ar
    13    40    43    1
    14    46    45   ar
    15    43    44   ar
    16    22    23    1
    17    22    21   am
    18    25    21    2
    19    35    34    1
    20    29     1    1
    21    33    32    1
    22    21    20    1
    23    44    45   ar
    24    34    31    1
    25    34    48    1
    26    32    31    1
    27     1    31    1
    28     1     2    1
    29    50    49    1
    30    57    53    2
    31    20    17    1
    32    20    26    1
    33    56    54    1
    34    48    49   am
    35    48    51    2
    36    27    26    1
    37    49    52    1
    38    17    18    1
    39    17    16   am
    40    53    54   am
    41    53    52    1
    42     2    16    1
    43     2     3    1
    44    54    55    1
    45    26    28    1
    46    16    19    2
    47    52    58    1
    48     3     4    1
    49     4     5    1
    50    58    59    1
    51    58    60    1
    52     5    10   ar
    53     5     6   ar
    54    10     9   ar
    55     6     7   ar
    56     9     8   ar
    57     7     8   ar
    58     8    11    1
    59    12    11   ar
    60    12    13   ar
    61    11    15   ar
    62    15    14   ar
    63    13    14   ar
