@<TRIPOS>MOLECULE
./ligand/3fas_lig.pdb
 18 17 0 0 0
SMALL
GASTEIGER

@<TRIPOS>ATOM
      1  N1        19.1270   16.3160   33.8520 N.4   525  INH525      0.2289
      2  C1        19.3750   15.6470   32.5330 C.3   525  INH525      0.0790
      3  C2        20.8570   15.4350   32.3140 C.2   525  INH525      0.4026
      4  O1        21.6510   15.8040   33.1890 O.co2 525  INH525     -0.2400
      5  C3        18.7890   16.4530   31.3700 C.3   525  INH525      0.0111
      6  C4        17.2920   16.2760   31.1750 C.3   525  INH525      0.0548
      7  C5        16.8550   14.9080   30.6570 C.2   525  INH525      0.3562
      8  O2        15.6330   14.6240   30.7910 O.co2 525  INH525     -0.2464
      9  O3        17.6820   14.1160   30.1170 O.co2 525  INH525     -0.2464
     10  O4        21.2360   14.8960   31.2680 O.co2 525  INH525     -0.2400
     11  H1        20.0060   16.4750   34.3190 H     525  INH525      0.2002
     12  H2        18.8820   14.6640   32.5520 H     525  INH525      0.0970
     13  H3        19.2960   16.1410   30.4450 H     525  INH525      0.0331
     14  H4        18.9880   17.5190   31.5550 H     525  INH525      0.0331
     15  H5        16.9520   17.0350   30.4560 H     525  INH525      0.0381
     16  H6        16.8010   16.4440   32.1450 H     525  INH525      0.0381
     17  H7        18.5450   15.7250   34.4250 H     525  INH525      0.2002
     18  H8        18.6570   17.2080   33.6980 H     525  INH525      0.2002
@<TRIPOS>BOND
     1     1     2    1
     2     1    17    1
     3     1    11    1
     4     1    18    1
     5     2     5    1
     6     2    12    1
     7     2     3    1
     8     3     4   ar
     9     3    10   ar
    10     5    14    1
    11     5     6    1
    12     5    13    1
    13     6    16    1
    14     6     7    1
    15     6    15    1
    16     7     8   ar
    17     7     9   ar
