@<TRIPOS>MOLECULE
/tmp/ewbell/vina_3fas_3fas_lig/vina/vina3.pdbqt
 15 14 0 0 0
SMALL
GASTEIGER

@<TRIPOS>ATOM
      1  C1        22.3470    8.6410   42.1010 C.3   525  INH525      0.2800
      2  N1        21.9720    9.7320   41.1430 N.4   525  INH525     -0.0650
      3  H7        21.4140   10.4230   41.6210 H     525  INH525      0.2750
      4  H1        22.8070   10.1660   40.7830 H     525  INH525      0.2750
      5  H8        21.4340    9.3370   40.3720 H     525  INH525      0.2750
      6  C3        22.2050    9.0930   43.5570 C.3   525  INH525      0.0540
      7  C4        21.0330   10.0260   43.8140 C.3   525  INH525      0.1120
      8  C5        19.8710    9.4200   44.5980 C.2   525  INH525      0.1390
      9  O2        18.9860   10.2260   44.9940 O.2   525  INH525     -0.6500
     10  O3        19.8100    8.1760   44.8240 O.3   525  INH525     -0.7760
     11  H         20.4950    7.6110   44.5240 H     525  INH525      0.1670
     12  C2        21.5030    7.4090   41.8620 C.2   525  INH525      0.1710
     13  O1        21.0230    7.2200   40.7360 O.2   525  INH525     -0.6480
     14  O4        21.3180    6.6210   42.7960 O.3   525  INH525     -0.7750
     15  H         21.4210    6.9100   43.6810 H     525  INH525      0.1670
@<TRIPOS>BOND
     1     5     2    1
     2    13    12    2
     3     4     2    1
     4     2     3    1
     5     2     1    1
     6    12     1    1
     7    12    14    1
     8     1     6    1
     9    14    15    1
    10     6     7    1
    11     7     8    1
    12    11    10    1
    13     8    10    1
    14     8     9    2
