@<TRIPOS>MOLECULE
/tmp/ewbell/vina_3fas_3fas_lig/vina/vina1.pdbqt
 15 14 0 0 0
SMALL
GASTEIGER

@<TRIPOS>ATOM
      1  C1        18.4010   15.4850   31.3120 C.3   525  INH525      0.2800
      2  N1        17.6720   14.1790   31.4240 N.4   525  INH525     -0.0650
      3  H7        18.3370   13.4310   31.5430 H     525  INH525      0.2750
      4  H1        17.0530   14.2070   32.2190 H     525  INH525      0.2750
      5  H8        17.1290   14.0190   30.5750 H     525  INH525      0.2750
      6  C3        17.4590   16.6780   31.4990 C.3   525  INH525      0.0540
      7  C4        16.2150   16.6380   30.6270 C.3   525  INH525      0.1120
      8  C5        14.9540   16.1100   31.3060 C.2   525  INH525      0.1390
      9  O2        14.7460   14.8700   31.2110 O.2   525  INH525     -0.6500
     10  O3        14.1720   16.8850   31.9320 O.3   525  INH525     -0.7760
     11  H         14.4520   17.2870   32.7310 H     525  INH525      0.1670
     12  C2        19.5250   15.5550   32.3220 C.2   525  INH525      0.1710
     13  O1        20.6180   15.0480   32.0390 O.2   525  INH525     -0.6480
     14  O4        19.3220   16.1210   33.4030 O.3   525  INH525     -0.7750
     15  H         18.7570   15.7280   34.0380 H     525  INH525      0.1670
@<TRIPOS>BOND
     1     5     2    1
     2     7     8    1
     3     7     6    1
     4     9     8    2
     5     8    10    1
     6     1     2    1
     7     1     6    1
     8     1    12    1
     9     2     3    1
    10     2     4    1
    11    10    11    1
    12    13    12    2
    13    12    14    1
    14    14    15    1
