@<TRIPOS>MOLECULE
/tmp/ewbell/vina_3fas_3fas_lig/vina/vina2.pdbqt
 15 14 0 0 0
SMALL
GASTEIGER

@<TRIPOS>ATOM
      1  C1        31.7190   13.4820   47.0480 C.3   525  INH525      0.2800
      2  N1        30.2620   13.6240   46.7240 N.4   525  INH525     -0.0650
      3  H7        29.9610   14.5640   46.9300 H     525  INH525      0.2750
      4  H1        30.1150   13.4320   45.7450 H     525  INH525      0.2750
      5  H8        29.7230   12.9650   47.2850 H     525  INH525      0.2750
      6  C3        32.3260   12.2380   46.3940 C.3   525  INH525      0.0540
      7  C4        31.8450   10.9210   46.9820 C.3   525  INH525      0.1120
      8  C5        30.9560   10.0810   46.0690 C.2   525  INH525      0.1390
      9  O2        31.4290    9.8000   44.9340 O.2   525  INH525     -0.6500
     10  O3        29.8120    9.6880   46.4450 O.3   525  INH525     -0.7760
     11  H         29.4580    9.9890   47.2590 H     525  INH525      0.1670
     12  C2        32.4840   14.7140   46.6140 C.2   525  INH525      0.1710
     13  O1        33.6370   14.8800   47.0300 O.2   525  INH525     -0.6480
     14  O4        31.9360   15.5200   45.8520 O.3   525  INH525     -0.7750
     15  H         32.1260   16.4340   45.9230 H     525  INH525      0.1670
@<TRIPOS>BOND
     1     9     8    2
     2     4     2    1
     3    14    15    1
     4    14    12    1
     5     8    10    1
     6     8     7    1
     7     6     7    1
     8     6     1    1
     9    10    11    1
    10    12    13    2
    11    12     1    1
    12     2     3    1
    13     2     1    1
    14     2     5    1
