@<TRIPOS>MOLECULE
/tmp/ewbell/vina_3fas_3fas_lig/vina/vina4.pdbqt
 15 14 0 0 0
SMALL
GASTEIGER

@<TRIPOS>ATOM
      1  C1        19.7960    6.4080   35.7550 C.3   525  INH525      0.2800
      2  N1        18.7500    6.3640   36.8290 N.4   525  INH525     -0.0650
      3  H7        17.8860    6.7420   36.4730 H     525  INH525      0.2750
      4  H1        18.6040    5.4090   37.1170 H     525  INH525      0.2750
      5  H8        19.0590    6.9170   37.6280 H     525  INH525      0.2750
      6  C3        19.1980    6.1440   34.3700 C.3   525  INH525      0.0540
      7  C4        20.0470    5.2520   33.4790 C.3   525  INH525      0.1120
      8  C5        21.0500    5.9800   32.5880 C.2   525  INH525      0.1390
      9  O2        22.1570    5.4020   32.4050 O.2   525  INH525     -0.6500
     10  O3        20.7720    7.0970   32.0610 O.3   525  INH525     -0.7760
     11  H         21.4140    7.7790   32.0410 H     525  INH525      0.1670
     12  C2        20.5070    7.7440   35.7590 C.2   525  INH525      0.1710
     13  O1        20.2520    8.5610   34.8650 O.2   525  INH525     -0.6480
     14  O4        21.3210    7.9850   36.6580 O.3   525  INH525     -0.7750
     15  H         22.2400    7.9540   36.4780 H     525  INH525      0.1670
@<TRIPOS>BOND
     1    11    10    1
     2    10     8    1
     3     9     8    2
     4     8     7    1
     5     7     6    1
     6     6     1    1
     7    13    12    2
     8     1    12    1
     9     1     2    1
    10    12    14    1
    11     3     2    1
    12    15    14    1
    13     2     4    1
    14     2     5    1
