@<TRIPOS>MOLECULE
/tmp/ewbell/vina_3fas_3fas_lig/vina/vina5.pdbqt
 15 14 0 0 0
SMALL
GASTEIGER

@<TRIPOS>ATOM
      1  C1        21.0970    7.9350   42.4200 C.3   525  INH525      0.2800
      2  N1        21.1390    6.5230   42.9220 N.4   525  INH525     -0.0650
      3  H7        21.8080    5.9940   42.3850 H     525  INH525      0.2750
      4  H1        21.4100    6.5190   43.8930 H     525  INH525      0.2750
      5  H8        20.2160    6.1000   42.8250 H     525  INH525      0.2750
      6  C3        21.7960    8.9000   43.3830 C.3   525  INH525      0.0540
      7  C4        20.8890    9.9710   43.9680 C.3   525  INH525      0.1120
      8  C5        19.6890    9.4550   44.7570 C.2   525  INH525      0.1390
      9  O2        18.7810   10.2950   45.0060 O.2   525  INH525     -0.6500
     10  O3        19.6170    8.2460   45.1290 O.3   525  INH525     -0.7760
     11  H         20.3920    7.7200   45.1630 H     525  INH525      0.1670
     12  C2        21.7290    8.0320   41.0490 C.2   525  INH525      0.1710
     13  O1        21.7020    7.0430   40.3060 O.2   525  INH525     -0.6480
     14  O4        22.2550    9.0980   40.7070 O.3   525  INH525     -0.7750
     15  H         23.1860    9.1590   40.6340 H     525  INH525      0.1670
@<TRIPOS>BOND
     1    13    12    2
     2    15    14    1
     3    14    12    1
     4    12     1    1
     5     3     2    1
     6     1     2    1
     7     1     6    1
     8     5     2    1
     9     2     4    1
    10     6     7    1
    11     7     8    1
    12     8     9    2
    13     8    10    1
    14    10    11    1
