@<TRIPOS>MOLECULE
./ligand/1x8d_lig.pdb
 21 21 0 0 0
SMALL
GASTEIGER

@<TRIPOS>ATOM
      1  C1        11.2370   31.7770   10.2980 C.3   213  INH213      0.2914
      2  C2        12.1450   31.8480    9.0710 C.3   213  INH213      0.1454
      3  C3        11.3990   31.2440    7.8730 C.3   213  INH213      0.1146
      4  C4        10.0740   31.9830    7.6650 C.3   213  INH213      0.1095
      5  C5         9.2610   31.9360    8.9670 C.3   213  INH213      0.0878
      6  C6         7.9470   32.6880    8.8920 C.3   213  INH213     -0.0360
      7  O1        11.8730   32.3340   11.3890 O.3   213  INH213     -0.1876
      8  O2        12.4920   33.2080    8.8100 O.3   213  INH213     -0.3835
      9  O3        12.1910   31.3340    6.6960 O.3   213  INH213     -0.3864
     10  O4         9.3550   31.3560    6.6090 O.3   213  INH213     -0.3866
     11  O5        10.0260   32.5060   10.0530 O.3   213  INH213     -0.3346
     12  H1        13.0620   31.2710    9.2580 H     213  INH213      0.0677
     13  H2        11.1900   30.1840    8.0810 H     213  INH213      0.0648
     14  H3        10.2740   33.0310    7.3980 H     213  INH213      0.0646
     15  H4         9.0450   30.8810    9.1930 H     213  INH213      0.0621
     16  H5         7.4240   32.6090    9.8570 H     213  INH213      0.0255
     17  H6         7.3210   32.2540    8.0990 H     213  INH213      0.0255
     18  H7         8.1430   33.7470    8.6660 H     213  INH213      0.0255
     19  H8        12.9520   33.5670    9.5600 H     213  INH213      0.2101
     20  H9        13.0110   30.8740    6.8300 H     213  INH213      0.2100
     21  H10        9.8690   31.3920    5.8110 H     213  INH213      0.2100
@<TRIPOS>BOND
     1     1    11    1
     2     1     7    1
     3     1     2    1
     4     2    12    1
     5     2     8    1
     6     2     3    1
     7     3    13    1
     8     3     9    1
     9     3     4    1
    10     4    14    1
    11     4    10    1
    12     4     5    1
    13     5    15    1
    14     5    11    1
    15     5     6    1
    16     6    18    1
    17     6    17    1
    18     6    16    1
    19     8    19    1
    20     9    20    1
    21    10    21    1
