@<TRIPOS>MOLECULE
/tmp/ewbell/vina_1x8d_1x8d_lig/vina/vina4.pdbqt
 15 15 0 0 0
SMALL
GASTEIGER

@<TRIPOS>ATOM
      1  C1         2.0500   16.5130   10.4620 C.3   213  INH213      0.2880
      2  C2         1.8240   16.1500    8.9950 C.3   213  INH213      0.2040
      3  C3         0.8920   17.1960    8.3690 C.3   213  INH213      0.1820
      4  C4         1.4950   18.5930    8.5410 C.3   213  INH213      0.1780
      5  C5         1.7670   18.8440   10.0310 C.3   213  INH213      0.1520
      6  C6         2.4190   20.1830   10.3140 C.3   213  INH213      0.0420
      7  O5         2.6380   17.8180   10.5590 O.3   213  INH213     -0.3510
      8  O1         2.9040   15.6010   11.0490 O.3   213  INH213     -0.3690
      9  H          2.5840   14.7010   10.8770 H     213  INH213      0.2120
     10  O2         3.0770   16.1230    8.3110 O.3   213  INH213     -0.3880
     11  H8         3.2930   15.2260    8.0800 H     213  INH213      0.2100
     12  O3         0.6940   16.9240    6.9880 O.3   213  INH213     -0.3900
     13  H9        -0.0650   16.3620    6.8810 H     213  INH213      0.2100
     14  O4         0.5800   19.5580    8.0350 O.3   213  INH213     -0.3900
     15  H10        1.0430   20.3660    7.8480 H     213  INH213      0.2100
@<TRIPOS>BOND
     1    13    12    1
     2    12     3    1
     3    15    14    1
     4    14     4    1
     5    11    10    1
     6    10     2    1
     7     3     4    1
     8     3     2    1
     9     4     5    1
    10     2     1    1
    11     5     6    1
    12     5     7    1
    13     1     7    1
    14     1     8    1
    15     9     8    1
