@<TRIPOS>MOLECULE
/tmp/ewbell/vina_1x8d_1x8d_lig/vina/vina5.pdbqt
 15 15 0 0 0
SMALL
GASTEIGER

@<TRIPOS>ATOM
      1  C1         1.7680   19.9500   10.0040 C.3   213  INH213      0.2880
      2  C2         0.4210   19.4520   10.5260 C.3   213  INH213      0.2040
      3  C3         0.1900   18.0260   10.0050 C.3   213  INH213      0.1820
      4  C4         1.3530   17.1270   10.4320 C.3   213  INH213      0.1780
      5  C5         2.6720   17.7410    9.9400 C.3   213  INH213      0.1520
      6  C6         3.9020   16.9580   10.3560 C.3   213  INH213      0.0420
      7  O5         2.8190   19.0840   10.4550 O.3   213  INH213     -0.3510
      8  O1         2.0150   21.2240   10.4740 O.3   213  INH213     -0.3690
      9  H          1.6430   21.3170   11.3660 H     213  INH213      0.2120
     10  O2         0.4250   19.4680   11.9530 O.3   213  INH213     -0.3880
     11  H8         0.7690   18.6440   12.2780 H     213  INH213      0.2100
     12  O3        -1.0330   17.5040   10.5080 O.3   213  INH213     -0.3900
     13  H9        -1.7500   17.7860    9.9520 H     213  INH213      0.2100
     14  O4         1.1690   15.8330    9.8680 O.3   213  INH213     -0.3900
     15  H10        0.3280   15.4860   10.1390 H     213  INH213      0.2100
@<TRIPOS>BOND
     1    14    15    1
     2    14     4    1
     3     5     6    1
     4     5     4    1
     5     5     7    1
     6    13    12    1
     7     1     7    1
     8     1     8    1
     9     1     2    1
    10     3     4    1
    11     3    12    1
    12     3     2    1
    13     8     9    1
    14     2    10    1
    15    10    11    1
