@<TRIPOS>MOLECULE
/tmp/ewbell/vina_1x8d_1x8d_lig/vina/vina1.pdbqt
 15 15 0 0 0
SMALL
GASTEIGER

@<TRIPOS>ATOM
      1  C1        11.2460   31.7380   10.0700 C.3   213  INH213      0.2880
      2  C2        12.3240   31.6670    8.9890 C.3   213  INH213      0.2040
      3  C3        11.7000   31.0910    7.7100 C.3   213  INH213      0.1820
      4  C4        10.5020   31.9470    7.2890 C.3   213  INH213      0.1780
      5  C5         9.5100   32.0350    8.4580 C.3   213  INH213      0.1520
      6  C6         8.3060   32.9100    8.1700 C.3   213  INH213      0.0420
      7  O5        10.1650   32.5720    9.6290 O.3   213  INH213     -0.3510
      8  O1        11.7730   32.2740   11.2270 O.3   213  INH213     -0.3690
      9  H         12.3570   33.0160   11.0030 H     213  INH213      0.2120
     10  O2        12.8440   32.9740    8.7450 O.3   213  INH213     -0.3880
     11  H8        12.6370   33.5390    9.4810 H     213  INH213      0.2100
     12  O3        12.6580   31.0530    6.6610 O.3   213  INH213     -0.3900
     13  H9        12.3720   30.4410    5.9930 H     213  INH213      0.2100
     14  O4         9.8820   31.3510    6.1560 O.3   213  INH213     -0.3900
     15  H10        9.9390   31.9430    5.4150 H     213  INH213      0.2100
@<TRIPOS>BOND
     1    15    14    1
     2    13    12    1
     3    14     4    1
     4    12     3    1
     5     4     3    1
     6     4     5    1
     7     3     2    1
     8     6     5    1
     9     5     7    1
    10    10     2    1
    11    10    11    1
    12     2     1    1
    13     7     1    1
    14     1     8    1
    15     9     8    1
