@<TRIPOS>MOLECULE
/tmp/ewbell/vina_1x8d_1x8d_lig/vina/vina2.pdbqt
 15 15 0 0 0
SMALL
GASTEIGER

@<TRIPOS>ATOM
      1  C1        11.5390   31.1930    7.2710 C.3   213  INH213      0.2880
      2  C2        11.6810   30.7740    8.7340 C.3   213  INH213      0.2040
      3  C3        11.0630   31.8660    9.6190 C.3   213  INH213      0.1820
      4  C4         9.6030   32.0920    9.2130 C.3   213  INH213      0.1780
      5  C5         9.5420   32.4250    7.7150 C.3   213  INH213      0.1520
      6  C6         8.1330   32.6160    7.1910 C.3   213  INH213      0.0420
      7  O5        10.1530   31.3650    6.9440 O.3   213  INH213     -0.3510
      8  O1        12.0670   30.2190    6.4480 O.3   213  INH213     -0.3690
      9  H         11.5910   30.2170    5.6020 H     213  INH213      0.2120
     10  O2        11.0190   29.5270    8.9410 O.3   213  INH213     -0.3880
     11  H8        11.3880   28.8720    8.3600 H     213  INH213      0.2100
     12  O3        11.1300   31.4930   10.9890 O.3   213  INH213     -0.3900
     13  H9        11.9570   31.7830   11.3560 H     213  INH213      0.2100
     14  O4         9.0710   33.1650    9.9810 O.3   213  INH213     -0.3900
     15  H10        9.7810   33.7070   10.3030 H     213  INH213      0.2100
@<TRIPOS>BOND
     1     9     8    1
     2     8     1    1
     3     7     1    1
     4     7     5    1
     5     6     5    1
     6     1     2    1
     7     5     4    1
     8    11    10    1
     9     2    10    1
    10     2     3    1
    11     4     3    1
    12     4    14    1
    13     3    12    1
    14    14    15    1
    15    12    13    1
