@<TRIPOS>MOLECULE
/tmp/ewbell/vina_1x8d_1x8d_lig/vina/vina3.pdbqt
 15 15 0 0 0
SMALL
GASTEIGER

@<TRIPOS>ATOM
      1  C1         9.2220   33.4550    6.2120 C.3   213  INH213      0.2880
      2  C2        10.3650   32.4430    6.2720 C.3   213  INH213      0.2040
      3  C3        10.8560   32.3420    7.7230 C.3   213  INH213      0.1820
      4  C4         9.6870   31.9620    8.6370 C.3   213  INH213      0.1780
      5  C5         8.5520   32.9800    8.4540 C.3   213  INH213      0.1520
      6  C6         7.3160   32.6690    9.2740 C.3   213  INH213      0.0420
      7  O5         8.1500   33.0340    7.0660 O.3   213  INH213     -0.3510
      8  O1         8.7440   33.5520    4.9210 O.3   213  INH213     -0.3690
      9  H          9.3890   34.0260    4.3720 H     213  INH213      0.2120
     10  O2         9.9050   31.1730    5.8110 O.3   213  INH213     -0.3880
     11  H8         9.7690   30.5960    6.5540 H     213  INH213      0.2100
     12  O3        11.8890   31.3730    7.8340 O.3   213  INH213     -0.3900
     13  H9        12.0250   30.9570    6.9910 H     213  INH213      0.2100
     14  O4        10.1370   31.9590    9.9870 O.3   213  INH213     -0.3900
     15  H10        9.3900   31.8910   10.5700 H     213  INH213      0.2100
@<TRIPOS>BOND
     1     9     8    1
     2     8     1    1
     3    10     2    1
     4    10    11    1
     5     1     2    1
     6     1     7    1
     7     2     3    1
     8    13    12    1
     9     7     5    1
    10     3    12    1
    11     3     4    1
    12     5     4    1
    13     5     6    1
    14     4    14    1
    15    14    15    1
