@<TRIPOS>MOLECULE
./ligand/2r6w_lig.pdb
 65 69 0 0 0
SMALL
GASTEIGER

@<TRIPOS>ATOM
      1  C1        10.7080   53.3480   59.6360 C.ar  467  INH467      0.0008
      2  C2        10.2010   54.6090   60.1340 C.ar  467  INH467     -0.0494
      3  C3         8.7920   54.8130   60.2910 C.ar  467  INH467     -0.0195
      4  C4        11.7390   56.6550   71.3940 C.3   467  INH467     -0.0621
      5  C5        13.2350   53.9520   59.7510 C.2   467  INH467      0.1948
      6  C6        14.1970   55.0950   63.7940 C.ar  467  INH467      0.1208
      7  C7        14.8140   55.7760   62.7110 C.ar  467  INH467     -0.0193
      8  C8        14.4950   55.3920   61.3700 C.ar  467  INH467     -0.0475
      9  C9        15.2480   56.4120   65.4630 C.3   467  INH467      0.1291
     10  O1        13.8880   54.4290   58.8390 O.2   467  INH467     -0.2866
     11  C10       12.1240   53.0060   59.4430 C.ar  467  INH467      0.0447
     12  C11       12.2990   51.6840   58.9650 C.ar  467  INH467      0.0313
     13  C12       13.6050   51.0450   58.6540 C.ar  467  INH467     -0.0104
     14  C13       14.6140   50.9770   59.6100 C.ar  467  INH467     -0.0501
     15  C14       15.8550   50.3780   59.2780 C.ar  467  INH467     -0.0196
     16  C15       16.0650   49.8660   57.9880 C.ar  467  INH467      0.1169
     17  O2        17.2630   49.2760   57.6190 O.3   467  INH467     -0.5068
     18  C16       15.0450   49.9230   57.0100 C.ar  467  INH467     -0.0196
     19  C17       13.8060   50.5260   57.3600 C.ar  467  INH467     -0.0501
     20  S1        10.7740   50.9350   58.7570 S.2   467  INH467     -0.0874
     21  C18        9.8470   52.3010   59.2910 C.ar  467  INH467      0.0241
     22  C19        8.4540   52.4840   59.4420 C.ar  467  INH467     -0.0058
     23  C20        7.9420   53.7470   59.9390 C.ar  467  INH467      0.1180
     24  O3         6.5930   53.8990   60.0350 O.3   467  INH467     -0.5067
     25  C21       13.5620   54.3280   61.1600 C.ar  467  INH467      0.0225
     26  C22       13.2770   54.0730   63.5960 C.ar  467  INH467     -0.0193
     27  C23       12.9500   53.6820   62.2850 C.ar  467  INH467     -0.0475
     28  O4        14.4150   55.3460   65.1190 O.3   467  INH467     -0.4867
     29  C24       15.4330   56.3180   66.9750 C.3   467  INH467      0.0031
     30  N1        14.3510   56.6080   67.9170 N.4   467  INH467      0.2376
     31  C25       13.5420   55.3660   68.1680 C.3   467  INH467     -0.0315
     32  C26       12.4690   55.4960   69.2680 C.3   467  INH467     -0.0098
     33  C27       12.9630   56.2400   70.5520 C.3   467  INH467     -0.0343
     34  C28       13.7750   57.4960   70.2600 C.3   467  INH467     -0.0098
     35  C29       14.8430   57.2060   69.1970 C.3   467  INH467     -0.0315
     36  H1        10.8920   55.4040   60.3900 H     467  INH467      0.0625
     37  H2         8.3960   55.7500   60.6660 H     467  INH467      0.0654
     38  H3        11.1320   55.7660   71.6210 H     467  INH467      0.0232
     39  H4        11.1330   57.3780   70.8280 H     467  INH467      0.0232
     40  H5        12.0790   57.1160   72.3330 H     467  INH467      0.0232
     41  H6        15.5190   56.5780   62.8980 H     467  INH467      0.0654
     42  H7        14.9520   55.8980   60.5280 H     467  INH467      0.0626
     43  H8        16.2180   56.3220   64.9510 H     467  INH467      0.0751
     44  H9        14.7780   57.3690   65.1920 H     467  INH467      0.0751
     45  H10       14.4520   51.3800   60.6030 H     467  INH467      0.0625
     46  H11       16.6420   50.3150   60.0210 H     467  INH467      0.0654
     47  H12       17.8650   49.2970   58.3540 H     467  INH467      0.2921
     48  H13       15.2040   49.5170   56.0180 H     467  INH467      0.0654
     49  H14       13.0110   50.5870   56.6260 H     467  INH467      0.0625
     50  H15        7.7700   51.6830   59.1870 H     467  INH467      0.0665
     51  H16        6.3950   54.7650   60.3710 H     467  INH467      0.2921
     52  H17       12.8150   53.5810   64.4450 H     467  INH467      0.0654
     53  H18       12.2310   52.8870   62.1240 H     467  INH467      0.0626
     54  H19       15.7490   55.2850   67.1810 H     467  INH467      0.0848
     55  H20       16.2510   57.0090   67.2270 H     467  INH467      0.0848
     56  H21       13.7450   57.2870   67.4830 H     467  INH467      0.2034
     57  H22       14.2340   54.5620   68.4600 H     467  INH467      0.0814
     58  H23       13.0370   55.0930   67.2300 H     467  INH467      0.0814
     59  H24       12.1450   54.4850   69.5570 H     467  INH467      0.0319
     60  H25       11.6140   56.0510   68.8540 H     467  INH467      0.0319
     61  H26       13.5890   55.5470   71.1330 H     467  INH467      0.0302
     62  H27       13.1030   58.2850   69.8930 H     467  INH467      0.0319
     63  H28       14.2660   57.8330   71.1850 H     467  INH467      0.0319
     64  H29       15.5730   56.5090   69.6350 H     467  INH467      0.0814
     65  H30       15.3420   58.1550   68.9540 H     467  INH467      0.0814
@<TRIPOS>BOND
     1     1    11   ar
     2     1    21   ar
     3     1     2   ar
     4     2    36    1
     5     2     3   ar
     6     3    37    1
     7     3    23   ar
     8     4    33    1
     9     4    40    1
    10     4    39    1
    11     4    38    1
    12     5    25    1
    13     5    11    1
    14     5    10    2
    15     6    28    1
    16     6    26   ar
    17     6     7   ar
    18     7    41    1
    19     7     8   ar
    20     8    42    1
    21     8    25   ar
    22     9    28    1
    23     9    44    1
    24     9    43    1
    25     9    29    1
    26    11    12   ar
    27    12    20   ar
    28    12    13    1
    29    13    19   ar
    30    13    14   ar
    31    14    45    1
    32    14    15   ar
    33    15    46    1
    34    15    16   ar
    35    16    18   ar
    36    16    17    1
    37    17    47    1
    38    18    48    1
    39    18    19   ar
    40    19    49    1
    41    20    21   ar
    42    21    22   ar
    43    22    23   ar
    44    22    50    1
    45    23    24    1
    46    24    51    1
    47    25    27   ar
    48    26    27   ar
    49    26    52    1
    50    27    53    1
    51    29    55    1
    52    29    54    1
    53    29    30    1
    54    30    56    1
    55    30    35    1
    56    30    31    1
    57    31    58    1
    58    31    57    1
    59    31    32    1
    60    32    60    1
    61    32    59    1
    62    32    33    1
    63    33    61    1
    64    33    34    1
    65    34    63    1
    66    34    62    1
    67    34    35    1
    68    35    65    1
    69    35    64    1
