@<TRIPOS>MOLECULE
/tmp/ewbell/vina_2r6w_2r6w_lig/vina/vina2.pdbqt
 38 42 0 0 0
SMALL
GASTEIGER

@<TRIPOS>ATOM
      1  C1        10.6210   53.1510   59.5760 C.ar  467  INH467     -0.0030
      2  C2        10.1060   54.4410   59.9850 C.ar  467  INH467      0.0160
      3  C3         8.6940   54.6630   60.0720 C.ar  467  INH467      0.0370
      4  C10       12.0410   52.7900   59.4610 C.ar  467  INH467      0.0440
      5  C11       12.2230   51.4420   59.0620 C.ar  467  INH467      0.0310
      6  S1        10.7010   50.6940   58.8320 S.2   467  INH467     -0.0880
      7  C18        9.7660   52.0930   59.2520 C.ar  467  INH467      0.0190
      8  C19        8.3690   52.2940   59.3360 C.ar  467  INH467      0.0560
      9  C20        7.8480   53.5850   59.7420 C.ar  467  INH467      0.0670
     10  C5        13.1470   53.7430   59.7640 C.2   467  INH467      0.1940
     11  O1        13.7810   54.2380   58.8480 O.2   467  INH467     -0.2870
     12  C21       13.4930   54.1040   61.1720 C.ar  467  INH467      0.0150
     13  C8        14.2840   55.2760   61.3880 C.ar  467  INH467      0.0180
     14  C7        14.6180   55.6470   62.7290 C.ar  467  INH467      0.0370
     15  C6        14.1540   54.8470   63.8070 C.ar  467  INH467      0.0680
     16  C22       13.3700   53.7180   63.6040 C.ar  467  INH467      0.0370
     17  C23       13.0320   53.3370   62.2930 C.ar  467  INH467      0.0180
     18  O4        14.4050   55.0730   65.1300 O.3   467  INH467     -0.3500
     19  C9        15.0150   56.2750   65.4940 C.3   467  INH467      0.2030
     20  C24       15.7800   55.9760   66.7800 C.3   467  INH467      0.2610
     21  N1        15.6130   54.7240   67.5180 N.4   467  INH467     -0.0690
     22  H21       14.8520   54.2190   67.0910 H     467  INH467      0.2800
     23  C29       15.2500   54.9430   68.9540 C.3   467  INH467      0.2350
     24  C28       15.1040   53.6800   69.8130 C.3   467  INH467      0.0320
     25  C27       16.3630   52.8270   69.7200 C.3   467  INH467     -0.0150
     26  C4        16.0530   51.4560   70.3550 C.3   467  INH467      0.0100
     27  C26       16.8700   52.6070   68.2560 C.3   467  INH467      0.0320
     28  C25       16.8520   53.8820   67.3900 C.3   467  INH467      0.2350
     29  C12       13.5350   50.7780   58.8410 C.ar  467  INH467     -0.0180
     30  C17       13.8680   50.3700   57.5340 C.ar  467  INH467      0.0150
     31  C16       15.1190   49.7470   57.2710 C.ar  467  INH467      0.0370
     32  C15       16.0150   49.5580   58.3490 C.ar  467  INH467      0.0650
     33  C14       15.6740   49.9600   59.6490 C.ar  467  INH467      0.0370
     34  C13       14.4230   50.5800   59.8940 C.ar  467  INH467      0.0150
     35  O2        17.2280   48.9520   58.0630 O.3   467  INH467     -0.3610
     36  H12       17.7890   49.5670   57.6060 H     467  INH467      0.2170
     37  O3         6.4990   53.7520   59.7730 O.3   467  INH467     -0.3610
     38  H16        6.0860   53.0930   59.2280 H     467  INH467      0.2170
@<TRIPOS>BOND
     1    31    30   ar
     2    31    32   ar
     3    30    29   ar
     4    36    35    1
     5    35    32    1
     6    32    33   ar
     7     6     5   ar
     8     6     7   ar
     9    29     5    1
    10    29    34   ar
    11    11    10    2
    12     5     4   ar
    13    38    37    1
    14     7     8   ar
    15     7     1   ar
    16     8     9   ar
    17     4     1   ar
    18     4    10    1
    19     1     2   ar
    20    33    34   ar
    21     9    37    1
    22     9     3   ar
    23    10    12    1
    24     2     3   ar
    25    12    13   ar
    26    12    17   ar
    27    13    14   ar
    28    17    16   ar
    29    14    15   ar
    30    16    15   ar
    31    15    18    1
    32    18    19    1
    33    19    20    1
    34    20    21    1
    35    22    21    1
    36    28    21    1
    37    28    27    1
    38    21    23    1
    39    27    25    1
    40    23    24    1
    41    25    24    1
    42    25    26    1
