@<TRIPOS>MOLECULE
/tmp/ewbell/vina_2r6w_2r6w_lig/vina/vina1.pdbqt
 38 42 0 0 0
SMALL
GASTEIGER

@<TRIPOS>ATOM
      1  C1        10.6440   53.1710   59.4790 C.ar  467  INH467     -0.0030
      2  C2        10.1330   54.4430   59.9440 C.ar  467  INH467      0.0160
      3  C3         8.7230   54.6480   60.0890 C.ar  467  INH467      0.0370
      4  C10       12.0620   52.8270   59.3010 C.ar  467  INH467      0.0440
      5  C11       12.2420   51.4940   58.8560 C.ar  467  INH467      0.0310
      6  S1        10.7190   50.7370   58.6600 S.2   467  INH467     -0.0880
      7  C18        9.7870   52.1140   59.1550 C.ar  467  INH467      0.0190
      8  C19        8.3930   52.2980   59.2960 C.ar  467  INH467      0.0560
      9  C20        7.8760   53.5720   59.7590 C.ar  467  INH467      0.0670
     10  C5        13.1700   53.7830   59.5910 C.2   467  INH467      0.1940
     11  O1        13.7880   54.2850   58.6680 O.2   467  INH467     -0.2870
     12  C21       13.5370   54.1380   60.9950 C.ar  467  INH467      0.0150
     13  C8        14.3370   55.3060   61.2040 C.ar  467  INH467      0.0180
     14  C7        14.6900   55.6710   62.5410 C.ar  467  INH467      0.0370
     15  C6        14.2380   54.8700   63.6230 C.ar  467  INH467      0.0680
     16  C22       13.4470   53.7450   63.4280 C.ar  467  INH467      0.0370
     17  C23       13.0880   53.3700   62.1210 C.ar  467  INH467      0.0180
     18  O4        14.5080   55.0900   64.9440 O.3   467  INH467     -0.3500
     19  C9        15.1830   56.2610   65.2950 C.3   467  INH467      0.2030
     20  C24       15.4850   56.1300   66.7850 C.3   467  INH467      0.2610
     21  N1        14.4900   56.4270   67.8160 N.4   467  INH467     -0.0690
     22  H21       13.8190   57.0640   67.4150 H     467  INH467      0.2800
     23  C29       15.0810   57.1020   69.0140 C.3   467  INH467      0.2350
     24  C28       14.1120   57.4060   70.1650 C.3   467  INH467      0.0320
     25  C27       13.3820   56.1380   70.5900 C.3   467  INH467     -0.0150
     26  C4        12.2310   56.5500   71.5310 C.3   467  INH467      0.0100
     27  C26       12.7930   55.3170   69.3950 C.3   467  INH467      0.0320
     28  C25       13.7570   55.1720   68.2020 C.3   467  INH467      0.2350
     29  C12       13.5510   50.8500   58.5680 C.ar  467  INH467     -0.0180
     30  C17       14.3440   50.4290   59.6530 C.ar  467  INH467      0.0150
     31  C16       15.5950   49.7920   59.4260 C.ar  467  INH467      0.0370
     32  C15       16.0120   49.5870   58.0900 C.ar  467  INH467      0.0650
     33  C14       15.2200   50.0160   57.0140 C.ar  467  INH467      0.0370
     34  C13       13.9760   50.6490   57.2580 C.ar  467  INH467      0.0150
     35  O2        17.2340   48.9610   57.8990 O.3   467  INH467     -0.3610
     36  H12       17.4060   48.3760   58.6270 H     467  INH467      0.2170
     37  O3         6.5270   53.7240   59.8440 O.3   467  INH467     -0.3610
     38  H16        6.2990   54.6310   59.6800 H     467  INH467      0.2170
@<TRIPOS>BOND
     1    33    34   ar
     2    33    32   ar
     3    34    29   ar
     4    35    32    1
     5    35    36    1
     6    32    31   ar
     7    29     5    1
     8    29    30   ar
     9     6     5   ar
    10     6     7   ar
    11    11    10    2
    12     5     4   ar
    13     7     8   ar
    14     7     1   ar
    15     8     9   ar
    16     4     1   ar
    17     4    10    1
    18    31    30   ar
    19     1     2   ar
    20    10    12    1
    21    38    37    1
    22     9    37    1
    23     9     3   ar
    24     2     3   ar
    25    12    13   ar
    26    12    17   ar
    27    13    14   ar
    28    17    16   ar
    29    14    15   ar
    30    16    15   ar
    31    15    18    1
    32    18    19    1
    33    19    20    1
    34    20    21    1
    35    22    21    1
    36    21    28    1
    37    21    23    1
    38    28    27    1
    39    23    24    1
    40    27    25    1
    41    24    25    1
    42    25    26    1
