@<TRIPOS>MOLECULE
/tmp/ewbell/vina_2r6w_2r6w_lig/vina/vina4.pdbqt
 38 42 0 0 0
SMALL
GASTEIGER

@<TRIPOS>ATOM
      1  C1        10.6020   53.1360   59.5270 C.ar  467  INH467     -0.0030
      2  C2        10.0870   54.4070   59.9920 C.ar  467  INH467      0.0160
      3  C3         8.6760   54.6100   60.1290 C.ar  467  INH467      0.0370
      4  C10       12.0210   52.7940   59.3570 C.ar  467  INH467      0.0440
      5  C11       12.2050   51.4620   58.9100 C.ar  467  INH467      0.0310
      6  S1        10.6840   50.7040   58.7040 S.2   467  INH467     -0.0880
      7  C18        9.7480   52.0790   59.1970 C.ar  467  INH467      0.0190
      8  C19        8.3530   52.2620   59.3300 C.ar  467  INH467      0.0560
      9  C20        7.8320   53.5340   59.7920 C.ar  467  INH467      0.0670
     10  C5        13.1270   53.7500   59.6550 C.2   467  INH467      0.1940
     11  O1        13.7660   54.2350   58.7370 O.2   467  INH467     -0.2870
     12  C21       13.4660   54.1260   61.0610 C.ar  467  INH467      0.0150
     13  C8        13.0390   53.2520   62.1100 C.ar  467  INH467      0.0180
     14  C7        13.3630   53.5860   63.4630 C.ar  467  INH467      0.0370
     15  C6        14.0980   54.7730   63.7280 C.ar  467  INH467      0.0680
     16  C22       14.5300   55.6160   62.7130 C.ar  467  INH467      0.0370
     17  C23       14.2220   55.3030   61.3760 C.ar  467  INH467      0.0180
     18  O4        14.4650   55.2210   64.9650 O.3   467  INH467     -0.3500
     19  C9        15.5700   56.0700   65.0620 C.3   467  INH467      0.2030
     20  C24       15.9150   56.1270   66.5470 C.3   467  INH467      0.2610
     21  N1        17.0220   56.9320   67.0650 N.4   467  INH467     -0.0690
     22  H21       17.7010   57.0250   66.3250 H     467  INH467      0.2800
     23  C29       17.7140   56.2860   68.2240 C.3   467  INH467      0.2350
     24  C28       18.8590   57.0880   68.8580 C.3   467  INH467      0.0320
     25  C27       18.3770   58.4780   69.2500 C.3   467  INH467     -0.0150
     26  C4        19.6170   59.3250   69.6060 C.3   467  INH467      0.0100
     27  C26       17.5690   59.2080   68.1260 C.3   467  INH467      0.0320
     28  C25       16.5350   58.3100   67.4170 C.3   467  INH467      0.2350
     29  C12       13.5160   50.8200   58.6280 C.ar  467  INH467     -0.0180
     30  C17       13.8920   50.6260   57.2840 C.ar  467  INH467      0.0150
     31  C16       15.1440   50.0330   56.9650 C.ar  467  INH467      0.0370
     32  C15       15.9980   49.6530   58.0270 C.ar  467  INH467      0.0650
     33  C14       15.6140   49.8420   59.3640 C.ar  467  INH467      0.0370
     34  C13       14.3620   50.4360   59.6640 C.ar  467  INH467      0.0150
     35  O2        17.2130   49.0800   57.6870 O.3   467  INH467     -0.3610
     36  H12       17.3070   49.0760   56.7420 H     467  INH467      0.2170
     37  O3         6.4820   53.6850   59.8700 O.3   467  INH467     -0.3610
     38  H16        6.1110   52.9640   60.3650 H     467  INH467      0.2170
@<TRIPOS>BOND
     1    36    35    1
     2    31    30   ar
     3    31    32   ar
     4    30    29   ar
     5    35    32    1
     6    32    33   ar
     7    29     5    1
     8    29    34   ar
     9     6     5   ar
    10     6     7   ar
    11    11    10    2
    12     5     4   ar
    13     7     8   ar
    14     7     1   ar
    15     8     9   ar
    16     4     1   ar
    17     4    10    1
    18    33    34   ar
    19     1     2   ar
    20    10    12    1
    21     9    37    1
    22     9     3   ar
    23    37    38    1
    24     2     3   ar
    25    12    17   ar
    26    12    13   ar
    27    17    16   ar
    28    13    14   ar
    29    16    15   ar
    30    14    15   ar
    31    15    18    1
    32    18    19    1
    33    19    20    1
    34    22    21    1
    35    20    21    1
    36    21    28    1
    37    21    23    1
    38    28    27    1
    39    27    25    1
    40    23    24    1
    41    24    25    1
    42    25    26    1
