@<TRIPOS>MOLECULE
/tmp/ewbell/vina_2r6w_2r6w_lig/vina/vina5.pdbqt
 38 42 0 0 0
SMALL
GASTEIGER

@<TRIPOS>ATOM
      1  C1        17.2220   53.2330   68.5040 C.ar  467  INH467     -0.0030
      2  C2        18.3740   53.1300   67.6330 C.ar  467  INH467      0.0160
      3  C3        19.2420   51.9930   67.7120 C.ar  467  INH467      0.0370
      4  C10       16.2480   54.3330   68.5140 C.ar  467  INH467      0.0440
      5  C11       15.2180   54.1320   69.4660 C.ar  467  INH467      0.0310
      6  S1        15.4770   52.6590   70.3000 S.2   467  INH467     -0.0880
      7  C18       16.9260   52.2400   69.4440 C.ar  467  INH467      0.0190
      8  C19       17.7710   51.1100   69.5330 C.ar  467  INH467      0.0560
      9  C20       18.9270   51.0040   68.6630 C.ar  467  INH467      0.0670
     10  C5        16.3400   55.5060   67.5970 C.2   467  INH467      0.1940
     11  O1        16.8470   56.5410   67.9940 O.2   467  INH467     -0.2870
     12  C21       15.8220   55.4350   66.1970 C.ar  467  INH467      0.0150
     13  C8        16.6850   55.8680   65.1410 C.ar  467  INH467      0.0180
     14  C7        16.2140   55.7980   63.7920 C.ar  467  INH467      0.0370
     15  C6        14.9080   55.3000   63.5370 C.ar  467  INH467      0.0680
     16  C22       14.0730   54.8610   64.5570 C.ar  467  INH467      0.0370
     17  C23       14.5190   54.9210   65.8900 C.ar  467  INH467      0.0180
     18  O4        14.3260   55.1880   62.3070 O.3   467  INH467     -0.3500
     19  C9        13.4920   54.0950   62.0640 C.3   467  INH467      0.2030
     20  C24       13.2720   54.0720   60.5550 C.3   467  INH467      0.2610
     21  N1        11.9610   53.8150   59.9570 N.4   467  INH467     -0.0690
     22  H21       12.0930   53.7360   58.9610 H     467  INH467      0.2800
     23  C29       10.9900   54.9300   60.1900 C.3   467  INH467      0.2350
     24  C28        9.5750   54.7180   59.6350 C.3   467  INH467      0.0320
     25  C27        8.9940   53.4080   60.1520 C.3   467  INH467     -0.0150
     26  C4         7.7130   53.1090   59.3470 C.3   467  INH467      0.0100
     27  C26        9.9700   52.1910   60.0250 C.3   467  INH467      0.0320
     28  C25       11.4180   52.5030   60.4530 C.3   467  INH467      0.2350
     29  C12       14.0940   55.0690   69.7320 C.ar  467  INH467     -0.0180
     30  C17       14.3370   56.1960   70.5410 C.ar  467  INH467      0.0150
     31  C16       13.2990   57.1290   70.8080 C.ar  467  INH467      0.0370
     32  C15       12.0250   56.8990   70.2360 C.ar  467  INH467      0.0650
     33  C14       11.7880   55.7710   69.4360 C.ar  467  INH467      0.0370
     34  C13       12.8350   54.8510   69.1800 C.ar  467  INH467      0.0150
     35  O2        11.0330   57.8270   70.5100 O.3   467  INH467     -0.3610
     36  H12       10.1850   57.3990   70.4820 H     467  INH467      0.2170
     37  O3        19.7390   49.9210   68.8050 O.3   467  INH467     -0.3610
     38  H16       20.6420   50.1820   68.6720 H     467  INH467      0.2170
@<TRIPOS>BOND
     1    22    21    1
     2    26    25    1
     3    24    25    1
     4    24    23    1
     5    21    23    1
     6    21    28    1
     7    21    20    1
     8    27    25    1
     9    27    28    1
    10    20    19    1
    11    19    18    1
    12    18    15    1
    13    15    14   ar
    14    15    16   ar
    15    14    13   ar
    16    16    17   ar
    17    13    12   ar
    18    17    12   ar
    19    12    10    1
    20    10    11    2
    21    10     4    1
    22     2     3   ar
    23     2     1   ar
    24     3     9   ar
    25     1     4   ar
    26     1     7   ar
    27     4     5   ar
    28     9    37    1
    29     9     8   ar
    30    38    37    1
    31    34    33   ar
    32    34    29   ar
    33    33    32   ar
    34     7     8   ar
    35     7     6   ar
    36     5    29    1
    37     5     6   ar
    38    29    30   ar
    39    32    35    1
    40    32    31   ar
    41    36    35    1
    42    30    31   ar
