@<TRIPOS>MOLECULE
/tmp/ewbell/vina_2r6w_2r6w_lig/vina/vina3.pdbqt
 38 42 0 0 0
SMALL
GASTEIGER

@<TRIPOS>ATOM
      1  C1        10.7680   53.3960   59.2730 C.ar  467  INH467     -0.0030
      2  C2        10.3000   54.7260   59.6070 C.ar  467  INH467      0.0160
      3  C3         8.8970   55.0030   59.6790 C.ar  467  INH467      0.0370
      4  C10       12.1740   52.9780   59.1810 C.ar  467  INH467      0.0440
      5  C11       12.3070   51.6040   58.8590 C.ar  467  INH467      0.0310
      6  S1        10.7580   50.8990   58.6700 S.2   467  INH467     -0.0880
      7  C18        9.8750   52.3540   59.0080 C.ar  467  INH467      0.0190
      8  C19        8.4860   52.6090   59.0790 C.ar  467  INH467      0.0560
      9  C20        8.0130   53.9400   59.4100 C.ar  467  INH467      0.0670
     10  C5        13.3140   53.9060   59.4300 C.2   467  INH467      0.1940
     11  O1        13.9710   54.3170   58.4890 O.2   467  INH467     -0.2870
     12  C21       13.6660   54.3440   60.8150 C.ar  467  INH467      0.0150
     13  C8        13.2200   53.5350   61.9070 C.ar  467  INH467      0.0180
     14  C7        13.5550   53.9290   63.2410 C.ar  467  INH467      0.0370
     15  C6        14.3210   55.1080   63.4450 C.ar  467  INH467      0.0680
     16  C22       14.7720   55.8880   62.3870 C.ar  467  INH467      0.0370
     17  C23       14.4530   55.5160   61.0690 C.ar  467  INH467      0.0180
     18  O4        14.7020   55.6090   64.6570 O.3   467  INH467     -0.3500
     19  C9        15.8950   55.1490   65.2190 C.3   467  INH467      0.2030
     20  C24       16.7470   56.3940   65.4510 C.3   467  INH467      0.2610
     21  N1        17.6790   56.9050   64.4460 N.4   467  INH467     -0.0690
     22  H21       17.1320   57.2730   63.6830 H     467  INH467      0.2800
     23  C29       18.5650   55.8380   63.8820 C.3   467  INH467      0.2350
     24  C28       19.6070   56.3000   62.8540 C.3   467  INH467      0.0320
     25  C27       20.4540   57.4280   63.4300 C.3   467  INH467     -0.0150
     26  C4        21.2730   58.0400   62.2740 C.3   467  INH467      0.0100
     27  C26       19.6180   58.5590   64.1150 C.3   467  INH467      0.0320
     28  C25       18.4840   58.0380   65.0200 C.3   467  INH467      0.2350
     29  C12       13.5940   50.8810   58.6770 C.ar  467  INH467     -0.0180
     30  C17       14.3060   50.4830   59.8250 C.ar  467  INH467      0.0150
     31  C16       15.5320   49.7730   59.7020 C.ar  467  INH467      0.0370
     32  C15       16.0080   49.4740   58.4040 C.ar  467  INH467      0.0650
     33  C14       15.2960   49.8800   57.2640 C.ar  467  INH467      0.0370
     34  C13       14.0760   50.5860   57.4060 C.ar  467  INH467      0.0150
     35  O2        17.2030   48.7790   58.3140 O.3   467  INH467     -0.3610
     36  H12       17.7060   48.9110   59.1080 H     467  INH467      0.2170
     37  O3         6.6700   54.1570   59.4300 O.3   467  INH467     -0.3610
     38  H16        6.3660   54.1750   60.3290 H     467  INH467      0.2170
@<TRIPOS>BOND
     1    33    34   ar
     2    33    32   ar
     3    34    29   ar
     4    35    32    1
     5    35    36    1
     6    32    31   ar
     7    11    10    2
     8     6     5   ar
     9     6     7   ar
    10    29     5    1
    11    29    30   ar
    12     5     4   ar
    13     7     8   ar
    14     7     1   ar
    15     8     9   ar
    16     4     1   ar
    17     4    10    1
    18     1     2   ar
    19     9    37    1
    20     9     3   ar
    21    10    12    1
    22    37    38    1
    23     2     3   ar
    24    31    30   ar
    25    12    17   ar
    26    12    13   ar
    27    17    16   ar
    28    13    14   ar
    29    26    25    1
    30    16    15   ar
    31    24    25    1
    32    24    23    1
    33    14    15   ar
    34    25    27    1
    35    15    18    1
    36    22    21    1
    37    23    21    1
    38    27    28    1
    39    21    28    1
    40    21    20    1
    41    18    19    1
    42    19    20    1
