@<TRIPOS>MOLECULE
./ligand/3f3d_lig.pdb
 20 19 0 0 0
SMALL
GASTEIGER

@<TRIPOS>ATOM
      1  N1        24.7800   32.3240   18.9560 N.4   1029  INH1029     0.2289
      2  H1        24.9960   33.2270   18.5620 H     1029  INH1029     0.2002
      3  H2        24.1760   31.8180   18.3270 H     1029  INH1029     0.2002
      4  H3        24.3090   32.4480   19.8520 H     1029  INH1029     0.2002
      5  C1        26.0420   31.5560   19.1590 C.3   1029  INH1029     0.0793
      6  C2        26.0530   30.2750   18.3320 C.2   1029  INH1029     0.4026
      7  O1        25.0130   29.8920   17.7990 O.co2 1029  INH1029    -0.2400
      8  C3        26.2180   31.2200   20.6420 C.3   1029  INH1029     0.0099
      9  C4        26.4500   32.4190   21.5410 C.3   1029  INH1029    -0.0009
     10  S1        28.0080   33.2230   21.1440 S.3   1029  INH1029    -0.1639
     11  C5        27.4780   34.8100   20.5360 C.3   1029  INH1029    -0.0181
     12  O2        27.0750   29.5870   18.1880 O.co2 1029  INH1029    -0.2400
     13  H4        26.8860   32.1840   18.8370 H     1029  INH1029     0.0970
     14  H5        27.0820   30.5460   20.7400 H     1029  INH1029     0.0333
     15  H6        25.3090   30.7040   20.9860 H     1029  INH1029     0.0333
     16  H7        26.4730   32.0850   22.5890 H     1029  INH1029     0.0378
     17  H8        25.6280   33.1370   21.4030 H     1029  INH1029     0.0378
     18  H9        26.8420   34.6690   19.6490 H     1029  INH1029     0.0340
     19  H10       28.3580   35.4110   20.2640 H     1029  INH1029     0.0340
     20  H11       26.9060   35.3300   21.3190 H     1029  INH1029     0.0340
@<TRIPOS>BOND
     1     7     6   ar
     2    12     6   ar
     3     3     1    1
     4     6     5    1
     5     2     1    1
     6    13     5    1
     7     1     5    1
     8     1     4    1
     9     5     8    1
    10    18    11    1
    11    19    11    1
    12    11    10    1
    13    11    20    1
    14     8    14    1
    15     8    15    1
    16     8     9    1
    17    10     9    1
    18    17     9    1
    19     9    16    1
