@<TRIPOS>MOLECULE
/tmp/ewbell/vina_3f3d_3f3d_lig/vina/vina1.pdbqt
 13 12 0 0 0
SMALL
GASTEIGER

@<TRIPOS>ATOM
      1  C1        26.0270   31.5450   19.0020 C.3   1029  INH1029     0.2810
      2  N1        24.7230   32.2630   18.9170 N.4   1029  INH1029    -0.0650
      3  H2        24.6250   32.6780   18.0030 H     1029  INH1029     0.2750
      4  H1        24.6920   32.9860   19.6200 H     1029  INH1029     0.2750
      5  H3        23.9600   31.6040   19.0730 H     1029  INH1029     0.2750
      6  C2        26.0450   30.3160   18.0990 C.2   1029  INH1029     0.1710
      7  O1        26.9350   29.4790   18.2380 O.2   1029  INH1029    -0.6480
      8  O2        25.1990   30.1330   17.2110 O.3   1029  INH1029    -0.7750
      9  H         24.3020   29.9880   17.4420 H     1029  INH1029     0.1670
     10  C3        26.3040   31.1320   20.4490 C.3   1029  INH1029     0.0540
     11  C4        26.2800   32.2720   21.4500 C.3   1029  INH1029     0.0760
     12  S1        27.5700   33.4690   21.0850 S.3   1029  INH1029    -0.1730
     13  C5        29.0510   32.4910   21.2120 C.3   1029  INH1029     0.0890
@<TRIPOS>BOND
     1     8     9    1
     2     8     6    1
     3     3     2    1
     4     6     7    2
     5     6     1    1
     6     2     1    1
     7     2     5    1
     8     2     4    1
     9     1    10    1
    10    10    11    1
    11    12    13    1
    12    12    11    1
