@<TRIPOS>MOLECULE
/tmp/ewbell/vina_3f3d_3f3d_lig/vina/vina4.pdbqt
 13 12 0 0 0
SMALL
GASTEIGER

@<TRIPOS>ATOM
      1  C1        25.9310   30.9710   20.1060 C.3   1029  INH1029     0.2810
      2  N1        27.0880   30.1210   19.7030 N.4   1029  INH1029    -0.0650
      3  H2        26.9090   29.1630   19.9620 H     1029  INH1029     0.2750
      4  H1        27.9220   30.4450   20.1700 H     1029  INH1029     0.2750
      5  H3        27.2190   30.1800   18.6930 H     1029  INH1029     0.2750
      6  C2        25.5780   31.9800   19.0190 C.2   1029  INH1029     0.1710
      7  O1        26.4180   32.2720   18.1700 O.2   1029  INH1029    -0.6480
      8  O2        24.4700   32.5360   18.9640 O.3   1029  INH1029    -0.7750
      9  H         23.7040   32.0360   18.7600 H     1029  INH1029     0.1670
     10  C3        26.2490   31.7030   21.4120 C.3   1029  INH1029     0.0540
     11  C4        27.6400   31.4490   21.9600 C.3   1029  INH1029     0.0760
     12  S1        28.8290   32.5870   21.2370 S.3   1029  INH1029    -0.1730
     13  C5        27.8340   34.0260   20.9090 C.3   1029  INH1029     0.0890
@<TRIPOS>BOND
     1     7     6    2
     2     5     2    1
     3     9     8    1
     4     8     6    1
     5     6     1    1
     6     2     3    1
     7     2     1    1
     8     2     4    1
     9     1    10    1
    10    13    12    1
    11    12    11    1
    12    10    11    1
