@<TRIPOS>MOLECULE
/tmp/ewbell/vina_3f3d_3f3d_lig/vina/vina3.pdbqt
 13 12 0 0 0
SMALL
GASTEIGER

@<TRIPOS>ATOM
      1  C1        27.2430   33.1700   21.4460 C.3   1029  INH1029     0.2810
      2  N1        27.3560   34.1820   20.3570 N.4   1029  INH1029    -0.0650
      3  H2        27.4420   35.1020   20.7600 H     1029  INH1029     0.2750
      4  H1        26.5310   34.1450   19.7770 H     1029  INH1029     0.2750
      5  H3        28.1800   33.9820   19.7890 H     1029  INH1029     0.2750
      6  C2        28.5640   32.4380   21.6640 C.2   1029  INH1029     0.1710
      7  O1        28.6640   31.6380   22.5920 O.2   1029  INH1029    -0.6480
      8  O2        29.5560   32.6330   20.9460 O.3   1029  INH1029    -0.7750
      9  H         29.8510   31.9610   20.3620 H     1029  INH1029     0.1670
     10  C3        26.1400   32.1630   21.1120 C.3   1029  INH1029     0.0540
     11  C4        26.6070   30.9380   20.3500 C.3   1029  INH1029     0.0760
     12  S1        26.4280   31.1820   18.5780 S.3   1029  INH1029    -0.1730
     13  C5        25.0450   30.1330   18.1830 C.3   1029  INH1029     0.0890
@<TRIPOS>BOND
     1    13    12    1
     2    12    11    1
     3     4     2    1
     4     5     2    1
     5    11    10    1
     6     2     3    1
     7     2     1    1
     8     9     8    1
     9     8     6    1
    10    10     1    1
    11     1     6    1
    12     6     7    2
