@<TRIPOS>MOLECULE
/tmp/ewbell/vina_3f3d_3f3d_lig/vina/vina2.pdbqt
 13 12 0 0 0
SMALL
GASTEIGER

@<TRIPOS>ATOM
      1  C1        27.0440   33.0610   21.6920 C.3   1029  INH1029     0.2810
      2  N1        25.5950   32.7130   21.7510 N.4   1029  INH1029    -0.0650
      3  H2        25.3260   32.2440   20.9010 H     1029  INH1029     0.2750
      4  H1        25.0520   33.5570   21.8560 H     1029  INH1029     0.2750
      5  H3        25.4240   32.0990   22.5470 H     1029  INH1029     0.2750
      6  C2        27.2550   34.4750   21.1610 C.2   1029  INH1029     0.1710
      7  O1        26.9250   35.4350   21.8540 O.2   1029  INH1029    -0.6480
      8  O2        27.7370   34.6970   20.0400 O.3   1029  INH1029    -0.7750
      9  H         27.7600   35.5730   19.7050 H     1029  INH1029     0.1670
     10  C3        27.7880   32.0570   20.8080 C.3   1029  INH1029     0.0540
     11  C4        26.9220   30.9490   20.2400 C.3   1029  INH1029     0.0760
     12  S1        26.5080   31.2780   18.5220 S.3   1029  INH1029    -0.1730
     13  C5        25.1190   30.2010   18.2470 C.3   1029  INH1029     0.0890
@<TRIPOS>BOND
     1    13    12    1
     2    12    11    1
     3     9     8    1
     4     8     6    1
     5    11    10    1
     6    10     1    1
     7     3     2    1
     8     6     1    1
     9     6     7    2
    10     1     2    1
    11     2     4    1
    12     2     5    1
