@<TRIPOS>MOLECULE
/tmp/ewbell/vina_3f3d_3f3d_lig/vina/vina5.pdbqt
 13 12 0 0 0
SMALL
GASTEIGER

@<TRIPOS>ATOM
      1  C1        28.5940   22.8580   19.3050 C.3   1029  INH1029     0.2810
      2  N1        27.5730   23.9400   19.1980 N.4   1029  INH1029    -0.0650
      3  H2        26.7150   23.6380   19.6310 H     1029  INH1029     0.2750
      4  H1        27.4050   24.1480   18.2250 H     1029  INH1029     0.2750
      5  H3        27.9140   24.7780   19.6710 H     1029  INH1029     0.2750
      6  C2        27.9420   21.5020   19.5520 C.2   1029  INH1029     0.1710
      7  O1        26.9010   21.4420   20.2030 O.2   1029  INH1029    -0.6480
      8  O2        28.4330   20.4430   19.1320 O.3   1029  INH1029    -0.7750
      9  H         27.9750   19.9360   18.4900 H     1029  INH1029     0.1670
     10  C3        29.5780   23.1760   20.4330 C.3   1029  INH1029     0.0540
     11  C4        29.1570   24.3150   21.3400 C.3   1029  INH1029     0.0760
     12  S1        28.5950   23.6910   22.9290 S.3   1029  INH1029    -0.1730
     13  C5        26.8250   23.8130   22.7870 C.3   1029  INH1029     0.0890
@<TRIPOS>BOND
     1     4     2    1
     2     9     8    1
     3     8     6    1
     4     2     1    1
     5     2     3    1
     6     2     5    1
     7     1     6    1
     8     1    10    1
     9     6     7    2
    10    10    11    1
    11    11    12    1
    12    13    12    1
