@<TRIPOS>MOLECULE
./ligand/1toj_lig.pdb
 20 20 0 0 0
SMALL
GASTEIGER

@<TRIPOS>ATOM
      1  C1        31.2410   23.6960    4.7350 C.2   797  INH797      0.3563
      2  O1        30.1150   23.2230    4.8740 O.co2 797  INH797     -0.2464
      3  O2        31.3860   24.8830    4.1580 O.co2 797  INH797     -0.2464
      4  C2        32.4760   22.9440    5.1790 C.3   797  INH797      0.0531
      5  C3        32.3590   22.4020    6.6100 C.3   797  INH797     -0.0175
      6  C4        32.6090   23.5050    7.6240 C.ar  797  INH797     -0.0468
      7  C5        33.8300   23.5640    8.3140 C.ar  797  INH797     -0.0586
      8  C6        34.0550   24.5930    9.2450 C.ar  797  INH797     -0.0615
      9  C7        33.0780   25.5660    9.4640 C.ar  797  INH797     -0.0617
     10  C8        31.8580   25.5130    8.7720 C.ar  797  INH797     -0.0615
     11  C9        31.6280   24.4870    7.8570 C.ar  797  INH797     -0.0586
     12  H1        33.3390   23.6250    5.1300 H     797  INH797      0.0382
     13  H2        32.6380   22.0980    4.4950 H     797  INH797      0.0382
     14  H3        33.1010   21.6030    6.7550 H     797  INH797      0.0318
     15  H4        31.3480   21.9960    6.7610 H     797  INH797      0.0318
     16  H5        34.5960   22.8190    8.1300 H     797  INH797      0.0620
     17  H6        34.9890   24.6310    9.7940 H     797  INH797      0.0618
     18  H7        33.2630   26.3660   10.1720 H     797  INH797      0.0618
     19  H8        31.0980   26.2660    8.9480 H     797  INH797      0.0618
     20  H9        30.6870   24.4450    7.3210 H     797  INH797      0.0620
@<TRIPOS>BOND
     1     3     1   ar
     2    13     4    1
     3     1     2   ar
     4     1     4    1
     5    12     4    1
     6     4     5    1
     7     5    14    1
     8     5    15    1
     9     5     6    1
    10    20    11    1
    11     6    11   ar
    12     6     7   ar
    13    11    10   ar
    14    16     7    1
    15     7     8   ar
    16    10    19    1
    17    10     9   ar
    18     8     9   ar
    19     8    17    1
    20     9    18    1
