@<TRIPOS>MOLECULE
/tmp/ewbell/vina_1toj_1toj_lig/vina/vina1.pdbqt
 12 12 0 0 0
SMALL
GASTEIGER

@<TRIPOS>ATOM
      1  C4        32.2620   23.3500    7.1570 C.ar  797  INH797     -0.0580
      2  C5        31.4770   24.3940    6.6420 C.ar  797  INH797      0.0070
      3  C6        31.0810   24.3670    5.2930 C.ar  797  INH797      0.0010
      4  C7        31.4880   23.3210    4.4640 C.ar  797  INH797      0.0000
      5  C8        32.2770   22.2780    4.9740 C.ar  797  INH797      0.0010
      6  C9        32.6610   22.2960    6.3140 C.ar  797  INH797      0.0070
      7  C3        32.7010   23.3730    8.6110 C.3   797  INH797      0.0490
      8  C2        34.2190   23.5760    8.7150 C.3   797  INH797      0.1140
      9  C1        34.6200   24.3670    9.9400 C.2   797  INH797      0.1390
     10  O2        35.2540   23.7440   10.9260 O.2   797  INH797     -0.6500
     11  O1        34.3950   25.5730   10.0310 O.3   797  INH797     -0.7760
     12  H         33.7090   25.9600    9.5240 H     797  INH797      0.1670
@<TRIPOS>BOND
     1     4     5   ar
     2     4     3   ar
     3     5     6   ar
     4     3     2   ar
     5     6     1   ar
     6     2     1   ar
     7     1     7    1
     8     7     8    1
     9     8     9    1
    10    12    11    1
    11     9    11    1
    12     9    10    2
