@<TRIPOS>MOLECULE
/tmp/ewbell/vina_1toj_1toj_lig/vina/vina2.pdbqt
 12 12 0 0 0
SMALL
GASTEIGER

@<TRIPOS>ATOM
      1  C4        32.7450   23.7290    7.8230 C.ar  797  INH797     -0.0580
      2  C5        31.8340   24.7960    7.8500 C.ar  797  INH797      0.0070
      3  C6        32.0230   25.8510    8.7600 C.ar  797  INH797      0.0010
      4  C7        33.0990   25.8240    9.6500 C.ar  797  INH797      0.0000
      5  C8        34.0090   24.7560    9.6290 C.ar  797  INH797      0.0010
      6  C9        33.8300   23.7150    8.7190 C.ar  797  INH797      0.0070
      7  C3        32.5460   22.5810    6.8480 C.3   797  INH797      0.0490
      8  C2        31.4510   22.9200    5.8280 C.3   797  INH797      0.1140
      9  C1        31.9880   23.6300    4.6070 C.2   797  INH797      0.1390
     10  O2        31.4390   24.7830    4.2410 O.2   797  INH797     -0.6500
     11  O1        32.9340   23.1790    3.9630 O.3   797  INH797     -0.7760
     12  H         32.7770   22.7040    3.1710 H     797  INH797      0.1670
@<TRIPOS>BOND
     1    12    11    1
     2    11     9    1
     3    10     9    2
     4     9     8    1
     5     8     7    1
     6     7     1    1
     7     1     2   ar
     8     1     6   ar
     9     2     3   ar
    10     6     5   ar
    11     3     4   ar
    12     5     4   ar
