@<TRIPOS>MOLECULE
/tmp/ewbell/vina_1toj_1toj_lig/vina/vina4.pdbqt
 12 12 0 0 0
SMALL
GASTEIGER

@<TRIPOS>ATOM
      1  C4        31.7460   23.8970    6.8610 C.ar  797  INH797     -0.0580
      2  C5        32.2780   22.6300    7.1460 C.ar  797  INH797      0.0070
      3  C6        32.5390   21.7320    6.0960 C.ar  797  INH797      0.0010
      4  C7        32.2470   22.0900    4.7780 C.ar  797  INH797      0.0000
      5  C8        31.7100   23.3540    4.4900 C.ar  797  INH797      0.0010
      6  C9        31.4610   24.2510    5.5280 C.ar  797  INH797      0.0070
      7  C3        31.4520   24.8710    7.9880 C.3   797  INH797      0.0490
      8  C2        31.1620   26.2720    7.4320 C.3   797  INH797      0.1140
      9  C1        30.9430   27.2990    8.5200 C.2   797  INH797      0.1390
     10  O2        30.4450   28.4860    8.1910 O.2   797  INH797     -0.6500
     11  O1        31.1920   27.0520    9.6990 O.3   797  INH797     -0.7760
     12  H         31.9510   26.5500    9.9220 H     797  INH797      0.1670
@<TRIPOS>BOND
     1     5     4   ar
     2     5     6   ar
     3     4     3   ar
     4     6     1   ar
     5     3     2   ar
     6     1     2   ar
     7     1     7    1
     8     8     7    1
     9     8     9    1
    10    10     9    2
    11     9    11    1
    12    11    12    1
