@<TRIPOS>MOLECULE
/tmp/ewbell/vina_1toj_1toj_lig/vina/vina3.pdbqt
 12 12 0 0 0
SMALL
GASTEIGER

@<TRIPOS>ATOM
      1  C4        32.3860   23.8770    7.8540 C.ar  797  INH797     -0.0580
      2  C5        33.3790   23.8550    8.8470 C.ar  797  INH797      0.0070
      3  C6        33.5290   24.9580    9.7060 C.ar  797  INH797      0.0010
      4  C7        32.7110   26.0790    9.5570 C.ar  797  INH797      0.0000
      5  C8        31.7210   26.1070    8.5630 C.ar  797  INH797      0.0010
      6  C9        31.5620   25.0100    7.7170 C.ar  797  INH797      0.0070
      7  C3        32.2210   22.6950    6.9150 C.3   797  INH797      0.0490
      8  C2        31.2470   23.0370    5.7800 C.3   797  INH797      0.1140
      9  C1        31.9290   23.6990    4.6040 C.2   797  INH797      0.1390
     10  O2        32.9640   23.0910    4.0360 O.2   797  INH797     -0.6500
     11  O1        31.5320   24.7710    4.1490 O.3   797  INH797     -0.7760
     12  H         31.9650   25.5680    4.3840 H     797  INH797      0.1670
@<TRIPOS>BOND
     1    10     9    2
     2    11    12    1
     3    11     9    1
     4     9     8    1
     5     8     7    1
     6     7     1    1
     7     6     1   ar
     8     6     5   ar
     9     1     2   ar
    10     5     4   ar
    11     2     3   ar
    12     4     3   ar
