@<TRIPOS>MOLECULE
/tmp/ewbell/vina_1toj_1toj_lig/vina/vina5.pdbqt
 12 12 0 0 0
SMALL
GASTEIGER

@<TRIPOS>ATOM
      1  C4        31.8860   24.9320    7.6430 C.ar  797  INH797     -0.0580
      2  C5        31.2470   24.9280    6.3930 C.ar  797  INH797      0.0070
      3  C6        31.1700   23.7340    5.6540 C.ar  797  INH797      0.0010
      4  C7        31.7490   22.5640    6.1500 C.ar  797  INH797      0.0000
      5  C8        32.3930   22.5660    7.3970 C.ar  797  INH797      0.0010
      6  C9        32.4600   23.7450    8.1370 C.ar  797  INH797      0.0070
      7  C3        31.9820   26.2180    8.4460 C.3   797  INH797      0.0490
      8  C2        30.6020   26.8750    8.5830 C.3   797  INH797      0.1140
      9  C1        30.5700   28.2860    8.0390 C.2   797  INH797      0.1390
     10  O2        31.5460   28.6850    7.2320 O.2   797  INH797     -0.6500
     11  O1        29.6510   29.0580    8.3070 O.3   797  INH797     -0.7760
     12  H         28.7860   28.8840    7.9930 H     797  INH797      0.1670
@<TRIPOS>BOND
     1     3     4   ar
     2     3     2   ar
     3     4     5   ar
     4     2     1   ar
     5    10     9    2
     6     5     6   ar
     7     1     6   ar
     8     1     7    1
     9    12    11    1
    10     9    11    1
    11     9     8    1
    12     7     8    1
