@<TRIPOS>MOLECULE
./ligand/1gww_lig.pdb
 36 37 0 0 0
SMALL
GASTEIGER

@<TRIPOS>ATOM
      1  N1         2.6080   13.5650   43.2950 N.ar  291  INH291     -0.2715
      2  C1         2.7140   14.5600   42.3200 C.ar  291  INH291      0.3314
      3  N2         2.2930   15.8320   42.6960 N.ar  291  INH291     -0.2749
      4  C2         1.7730   16.2050   43.9610 C.ar  291  INH291      0.2539
      5  C3         1.6880   15.1390   44.9300 C.ar  291  INH291      0.0192
      6  C4         2.0930   13.8960   44.5790 C.ar  291  INH291      0.0171
      7  O1         3.1550   14.3350   41.1860 O.2   291  INH291     -0.2464
      8  O2         1.4470   17.3780   44.1270 O.2   291  INH291     -0.2677
      9  C5         3.0420   12.1610   42.9570 C.3   291  INH291      0.1679
     10  C6         4.5590   11.9670   42.7550 C.3   291  INH291      0.1286
     11  O3         4.8260   10.9340   41.8180 O.3   291  INH291     -0.3847
     12  C7         5.0140   11.6420   44.1740 C.3   291  INH291      0.1135
     13  C8         3.8930   10.7030   44.6580 C.3   291  INH291      0.1133
     14  O4         2.6880   11.2560   44.0270 O.3   291  INH291     -0.3456
     15  O5         6.2730   10.9660   44.0870 O.3   291  INH291     -0.3864
     16  C9         3.6750   10.6900   46.2030 C.3   291  INH291      0.0836
     17  O6         4.1010   11.9470   46.7110 O.3   291  INH291     -0.3245
     18  P1         5.3630   12.4090   47.5200 P.3   291  INH291      0.2224
     19  O7         6.5680   11.9040   46.8120 O.3   291  INH291     -0.4370
     20  O8         5.2500   13.9040   47.7020 O.2   291  INH291     -0.5170
     21  O9         5.1650   11.5990   48.8650 O.3   291  INH291     -0.2261
     22  P2         6.2230   11.3600   50.0360 P.3   291  INH291      0.5373
     23  O10        7.2160   10.2270   49.4490 O.3   291  INH291     -0.1143
     24  O11        5.3810   10.8690   51.1590 O.3   291  INH291     -0.1143
     25  O12        7.1240   12.5210   50.2320 O.2   291  INH291     -0.2221
     26  H1         2.3640   16.5530   42.0070 H     291  INH291      0.1734
     27  H2         1.3030   15.3320   45.9300 H     291  INH291      0.0686
     28  H3         2.0200   13.1040   45.3220 H     291  INH291      0.0813
     29  H4         2.5230   11.8650   42.0330 H     291  INH291      0.0867
     30  H5         5.0330   12.8940   42.4010 H     291  INH291      0.0665
     31  H6         5.7650   10.8370   41.7130 H     291  INH291      0.2101
     32  H7         5.0980   12.5380   44.8070 H     291  INH291      0.0647
     33  H8         4.0890    9.6760   44.3150 H     291  INH291      0.0647
     34  H9         6.9380   11.5740   43.7860 H     291  INH291      0.2100
     35  H10        4.2670    9.8820   46.6580 H     291  INH291      0.0591
     36  H11        2.6100   10.5360   46.4300 H     291  INH291      0.0591
@<TRIPOS>BOND
     1     1     9    1
     2     1     6   ar
     3     1     2   ar
     4     2     7    2
     5     2     3   ar
     6     3    26    1
     7     3     4   ar
     8     4     8    2
     9     4     5   ar
    10     5    27    1
    11     5     6   ar
    12     6    28    1
    13     9    29    1
    14     9    14    1
    15     9    10    1
    16    10    30    1
    17    10    12    1
    18    10    11    1
    19    11    31    1
    20    12    32    1
    21    12    15    1
    22    12    13    1
    23    13    33    1
    24    13    16    1
    25    13    14    1
    26    15    34    1
    27    16    36    1
    28    16    35    1
    29    16    17    1
    30    17    18    1
    31    18    21    1
    32    18    20    2
    33    18    19    1
    34    21    22    1
    35    22    25    2
    36    22    24    1
    37    22    23    1
