@<TRIPOS>MOLECULE
/tmp/ewbell/vina_1gww_1gww_lig/vina/vina4.pdbqt
 32 34 0 0 0
SMALL
GASTEIGER

@<TRIPOS>ATOM
      1  N1         4.1130   10.5410   52.2210 N.pl3 291  INH291     -0.2930
      2  C1         5.0320    9.6150   52.7220 C.3   291  INH291      0.2400
      3  N2         5.9460   10.1020   53.6510 N.am  291  INH291     -0.2880
      4  C2         6.0300   11.4340   54.1300 C.2   291  INH291      0.2490
      5  C3         5.0560   12.3470   53.5810 C.2   291  INH291      0.0920
      6  C4         4.1600   11.8890   52.6750 C.2   291  INH291      0.1030
      7  O1         5.0410    8.4300   52.3670 O.3   291  INH291     -0.2150
      8  O2         6.9020   11.6960   54.9540 O.2   291  INH291     -0.2680
      9  C5         3.0950   10.0860   51.2070 C.3   291  INH291      0.2620
     10  C6         2.1420   11.1820   50.6860 C.3   291  INH291      0.1980
     11  C7         2.9230   11.7170   49.4900 C.3   291  INH291      0.1820
     12  C8         3.4700   10.4210   48.8640 C.3   291  INH291      0.1800
     13  O4         3.7560    9.5730   50.0280 O.3   291  INH291     -0.3530
     14  C9         4.7900   10.5970   48.0500 C.3   291  INH291      0.2150
     15  O6         5.7850   11.0880   48.9380 O.3   291  INH291     -0.2940
     16  P1         6.4280   10.5210   50.2510 P.3   291  INH291      0.4020
     17  O8         6.7790   11.7050   51.1200 O.2   291  INH291     -0.6310
     18  O9         5.2300    9.6600   50.8220 O.3   291  INH291     -0.1890
     19  P2         4.9030    8.1220   50.5480 P.3   291  INH291      0.4170
     20  H1         6.6090    9.4490   54.0170 H     291  INH291      0.1720
     21  O12        3.6780    7.6690   51.2480 O.3   291  INH291     -0.3010
     22  H12        3.8620    7.3160   52.1110 H     291  INH291      0.2230
     23  O11        5.0010    8.0140   49.0670 O.3   291  INH291     -0.3010
     24  H          5.5560    8.7330   48.7270 H     291  INH291      0.2230
     25  O10        6.0780    7.3230   51.3180 O.3   291  INH291     -0.3010
     26  H          6.6410    7.9540   51.7920 H     291  INH291      0.2230
     27  O7         7.5420    9.6190   49.8600 O.3   291  INH291     -0.3070
     28  H          7.5640    8.8550   50.4570 H     291  INH291      0.2220
     29  O3         0.8740   10.6420   50.3460 O.3   291  INH291     -0.3880
     30  H6         0.9590   10.0960   49.5740 H     291  INH291      0.2100
     31  O5         1.9960   12.3770   48.6210 O.3   291  INH291     -0.3900
     32  H9         1.2310   12.6430   49.1180 H     291  INH291      0.2100
@<TRIPOS>BOND
     1    14    12    1
     2    14    15    1
     3    31    32    1
     4    31    11    1
     5    24    23    1
     6    12    11    1
     7    12    13    1
     8    15    16    1
     9    23    19    1
    10    11    10    1
    11    30    29    1
    12    27    16    1
    13    27    28    1
    14    13     9    1
    15    16    18    1
    16    16    17    2
    17    29    10    1
    18    19    18    1
    19    19    21    1
    20    19    25    1
    21    19     7    1
    22    10     9    1
    23     9     1    1
    24    21    22    1
    25    25    26    1
    26     1     6    1
    27     1     2    1
    28     7     2    1
    29     6     5    2
    30     2     3    1
    31     5     4    1
    32     3    20    1
    33     3     4   am
    34     4     8    2
