@<TRIPOS>MOLECULE
/tmp/ewbell/vina_1gww_1gww_lig/vina/vina2.pdbqt
 32 34 0 0 0
SMALL
GASTEIGER

@<TRIPOS>ATOM
      1  N1         5.7290    8.8470   50.8150 N.pl3 291  INH291     -0.2930
      2  C1         6.7500    9.7990   50.7560 C.3   291  INH291      0.2400
      3  N2         7.6660    9.7780   51.8030 N.am  291  INH291     -0.2880
      4  C2         7.6590    8.8900   52.9090 C.2   291  INH291      0.2490
      5  C3         6.5840    7.9270   52.9170 C.2   291  INH291      0.0920
      6  C4         5.6840    7.9350   51.9060 C.2   291  INH291      0.1030
      7  O1         6.8440   10.6180   49.8340 O.3   291  INH291     -0.2150
      8  O2         8.5470    9.0090   53.7490 O.2   291  INH291     -0.2680
      9  C5         4.6970    8.8130   49.7160 C.3   291  INH291      0.2620
     10  C6         3.5900    7.7510   49.8790 C.3   291  INH291      0.1980
     11  C7         2.5450    8.5230   50.6780 C.3   291  INH291      0.1820
     12  C8         2.5810    9.9030   49.9940 C.3   291  INH291      0.1800
     13  O4         3.9970   10.0760   49.6470 O.3   291  INH291     -0.3530
     14  C9         2.1510   11.0940   50.9060 C.3   291  INH291      0.2150
     15  O6         3.0510   11.1450   52.0050 O.3   291  INH291     -0.2940
     16  P1         4.6020   11.3520   52.1160 P.3   291  INH291      0.4020
     17  O8         5.0690   10.5690   53.3190 O.2   291  INH291     -0.6310
     18  O9         5.0830   10.7330   50.7410 O.3   291  INH291     -0.1890
     19  P2         5.2790   11.4740   49.3410 P.3   291  INH291      0.4170
     20  H1         8.4020   10.4540   51.7730 H     291  INH291      0.1720
     21  O12        5.7290   10.5540   48.2700 O.3   291  INH291     -0.3010
     22  H12        5.3370    9.6920   48.3420 H     291  INH291      0.2230
     23  O11        4.0140   12.2420   49.1850 O.3   291  INH291     -0.3010
     24  H          4.0690   13.0640   49.6970 H     291  INH291      0.2230
     25  O10        6.5680   12.4220   49.5700 O.3   291  INH291     -0.3010
     26  H          7.1590   12.0120   50.2210 H     291  INH291      0.2230
     27  O7         4.8670   12.8140   52.1190 O.3   291  INH291     -0.3070
     28  H          4.0910   13.2830   52.4650 H     291  INH291      0.2220
     29  O3         3.1240    7.2960   48.6170 O.3   291  INH291     -0.3880
     30  H6         3.8480    6.9250   48.1270 H     291  INH291      0.2100
     31  O5         1.2840    7.8720   50.4950 O.3   291  INH291     -0.3900
     32  H9         1.3090    7.0140   50.9020 H     291  INH291      0.2100
@<TRIPOS>BOND
     1    30    29    1
     2    21    22    1
     3    21    19    1
     4    29    10    1
     5    23    19    1
     6    23    24    1
     7    19    25    1
     8    19     7    1
     9    19    18    1
    10    25    26    1
    11    13     9    1
    12    13    12    1
    13     9    10    1
    14     9     1    1
    15     7     2    1
    16    10    11    1
    17    12    11    1
    18    12    14    1
    19    31    11    1
    20    31    32    1
    21    18    16    1
    22     2     1    1
    23     2     3    1
    24     1     6    1
    25    14    15    1
    26    20     3    1
    27     3     4   am
    28     6     5    2
    29    15    16    1
    30    16    27    1
    31    16    17    2
    32    27    28    1
    33     4     5    1
    34     4     8    2
