@<TRIPOS>MOLECULE
/tmp/ewbell/vina_1gww_1gww_lig/vina/vina1.pdbqt
 32 34 0 0 0
SMALL
GASTEIGER

@<TRIPOS>ATOM
      1  N1         4.7620    9.9710   49.4710 N.pl3 291  INH291     -0.2930
      2  C1         3.9210    9.0580   48.8280 C.3   291  INH291      0.2400
      3  N2         3.5430    9.3860   47.5300 N.am  291  INH291     -0.2880
      4  C2         3.9280   10.5440   46.8090 C.2   291  INH291      0.2490
      5  C3         4.7980   11.4500   47.5200 C.2   291  INH291      0.0920
      6  C4         5.1740   11.1460   48.7840 C.2   291  INH291      0.1030
      7  O1         3.5300    8.0180   49.3710 O.3   291  INH291     -0.2150
      8  O2         3.5010   10.6800   45.6650 O.2   291  INH291     -0.2680
      9  C5         5.2090    9.6830   50.8820 C.3   291  INH291      0.2620
     10  C6         6.1090   10.7590   51.5240 C.3   291  INH291      0.1980
     11  C7         5.0730   11.6780   52.1630 C.3   291  INH291      0.1820
     12  C8         4.0710   10.6660   52.7480 C.3   291  INH291      0.1800
     13  O4         4.0650    9.5810   51.7590 O.3   291  INH291     -0.3530
     14  C9         2.6130   11.2020   52.8950 C.3   291  INH291      0.2150
     15  O6         2.1480   11.5540   51.5990 O.3   291  INH291     -0.2940
     16  P1         1.9340   10.7400   50.2760 P.3   291  INH291      0.4020
     17  O8         2.1900   11.6850   49.1270 O.2   291  INH291     -0.6310
     18  O9         3.0460    9.6250   50.4290 O.3   291  INH291     -0.1890
     19  P2         2.9140    8.1870   51.1080 P.3   291  INH291      0.4170
     20  H1         2.9420    8.7410   47.0590 H     291  INH291      0.1720
     21  O12        4.1850    7.4260   51.0770 O.3   291  INH291     -0.3010
     22  H12        4.7270    7.5900   51.8400 H     291  INH291      0.2230
     23  O11        2.2520    8.4850   52.4070 O.3   291  INH291     -0.3010
     24  H          1.6660    7.7510   52.6470 H     291  INH291      0.2230
     25  O10        1.9690    7.3550   50.0950 O.3   291  INH291     -0.3010
     26  H          2.5110    6.7400   49.5780 H     291  INH291      0.2230
     27  O7         0.5900   10.1080   50.3430 O.3   291  INH291     -0.3070
     28  H          0.5240    9.5740   51.1490 H     291  INH291      0.2220
     29  O3         7.0160   10.1850   52.4540 O.3   291  INH291     -0.3880
     30  H6         7.8400   10.0000   52.0200 H     291  INH291      0.2100
     31  O5         5.7290   12.4320   53.1890 O.3   291  INH291     -0.3900
     32  H9         5.2630   12.3190   54.0100 H     291  INH291      0.2100
@<TRIPOS>BOND
     1     8     4    2
     2     4     5    1
     3     4     3   am
     4    20     3    1
     5     5     6    2
     6     3     2    1
     7     6     1    1
     8     2     7    1
     9     2     1    1
    10    17    16    2
    12     1     9    1
    13    26    25    1
    14    25    19    1
    15    16    27    1
    16    16    18    1
    17    16    15    1
    18    27    28    1
    19    18    19    1
    20     9    10    1
    21     9    13    1
    22    21    19    1
    23    21    22    1
    24    19    23    1
    25    10    11    1
    26    10    29    1
    27    15    14    1
    28    13    12    1
    29    30    29    1
    30    11    12    1
    31    11    31    1
    32    23    24    1
    33    12    14    1
    34    31    32    1
