@<TRIPOS>MOLECULE
/tmp/ewbell/vina_1gww_1gww_lig/vina/vina3.pdbqt
 32 34 0 0 0
SMALL
GASTEIGER

@<TRIPOS>ATOM
      1  N1         4.5510   10.0040   49.3200 N.pl3 291  INH291     -0.2930
      2  C1         3.4530   10.8010   48.9870 C.3   291  INH291      0.2400
      3  N2         3.7460   12.0510   48.4490 N.am  291  INH291     -0.2880
      4  C2         5.0390   12.5820   48.2120 C.2   291  INH291      0.2490
      5  C3         6.1350   11.7150   48.5730 C.2   291  INH291      0.0920
      6  C4         5.8670   10.4970   49.0970 C.2   291  INH291      0.1030
      7  O1         2.2860   10.4290   49.1560 O.3   291  INH291     -0.2150
      8  O2         5.1200   13.7080   47.7290 O.2   291  INH291     -0.2680
      9  C5         4.3100    8.6380   49.9120 C.3   291  INH291      0.2620
     10  C6         5.5790    7.8410   50.2780 C.3   291  INH291      0.1980
     11  C7         5.8160    8.2940   51.7150 C.3   291  INH291      0.1820
     12  C8         4.3850    8.3040   52.2840 C.3   291  INH291      0.1800
     13  O4         3.5690    8.7510   51.1480 O.3   291  INH291     -0.3530
     14  C9         4.1600    9.2950   53.4680 C.3   291  INH291      0.2150
     15  O6         4.4340   10.6070   52.9940 O.3   291  INH291     -0.2940
     16  P1         3.8050   11.4930   51.8630 P.3   291  INH291      0.4020
     17  O8         4.9120   12.3630   51.3150 O.2   291  INH291     -0.6310
     18  O9         3.3230   10.3810   50.8460 O.3   291  INH291     -0.1890
     19  P2         1.9070    9.6460   50.7890 P.3   291  INH291      0.4170
     20  H1         2.9690   12.6310   48.2070 H     291  INH291      0.1720
     21  O12        1.8320    8.6430   49.7000 O.3   291  INH291     -0.3010
     22  H12        0.9940    8.6530   49.2530 H     291  INH291      0.2230
     23  O11        1.6820    9.2350   52.2010 O.3   291  INH291     -0.3010
     24  H          2.4700    8.7800   52.5350 H     291  INH291      0.2230
     25  O10        0.8830   10.7950   50.2950 O.3   291  INH291     -0.3010
     26  H         -0.0230   10.5450   50.5360 H     291  INH291      0.2230
     27  O7         2.6220   12.1880   52.4340 O.3   291  INH291     -0.3070
     28  H          2.8190   12.4680   53.3420 H     291  INH291      0.2220
     29  O3         5.3660    6.4440   50.1470 O.3   291  INH291     -0.3880
     30  H6         5.7800    5.9910   50.8720 H     291  INH291      0.2100
     31  O5         6.6360    7.3100   52.3560 O.3   291  INH291     -0.3900
     32  H9         6.4060    7.2580   53.2760 H     291  INH291      0.2100
@<TRIPOS>BOND
     1     8     4    2
     2    20     3    1
     3     4     3   am
     4     4     5    1
     5     3     2    1
     6     5     6    2
     7     2     7    1
     8     2     1    1
     9     6     1    1
    10     7    19    1
    11    22    21    1
    12     1     9    1
    13    21    19    1
    14     9    10    1
    15     9    13    1
    16    29    10    1
    17    29    30    1
    18    10    11    1
    19    25    26    1
    20    25    19    1
    21    19    18    1
    22    19    23    1
    23    18    16    1
    24    13    12    1
    25    17    16    2
    26    11    12    1
    27    11    31    1
    28    16    27    1
    29    16    15    1
    30    23    24    1
    31    12    14    1
    32    31    32    1
    33    27    28    1
    34    15    14    1
