@<TRIPOS>MOLECULE
/tmp/ewbell/vina_1gww_1gww_lig/vina/vina5.pdbqt
 32 34 0 0 0
SMALL
GASTEIGER

@<TRIPOS>ATOM
      1  N1         5.7380   10.4330   51.5450 N.pl3 291  INH291     -0.2930
      2  C1         4.8740   10.0490   52.5730 C.3   291  INH291      0.2400
      3  N2         5.2920    8.9760   53.3540 N.am  291  INH291     -0.2880
      4  C2         6.4990    8.2470   53.2040 C.2   291  INH291      0.2490
      5  C3         7.3550    8.6890   52.1290 C.2   291  INH291      0.0920
      6  C4         6.9610    9.7310   51.3600 C.2   291  INH291      0.1030
      7  O1         3.7970   10.6200   52.7850 O.3   291  INH291     -0.2150
      8  O2         6.7150    7.3230   53.9840 O.2   291  INH291     -0.2680
      9  C5         5.3480   11.5870   50.6550 C.3   291  INH291      0.2620
     10  C6         6.3470   11.9210   49.5280 C.3   291  INH291      0.1980
     11  C7         5.8400   11.0300   48.4000 C.3   291  INH291      0.1820
     12  C8         4.3140   11.1930   48.5290 C.3   291  INH291      0.1800
     13  O4         4.1030   11.2980   49.9790 O.3   291  INH291     -0.3530
     14  C9         3.4810    9.9840   48.0000 C.3   291  INH291      0.2150
     15  O6         3.8490    8.8390   48.7600 O.3   291  INH291     -0.2940
     16  P1         3.7670    8.4910   50.2870 P.3   291  INH291      0.4020
     17  O8         4.9330    7.5830   50.5970 O.2   291  INH291     -0.6310
     18  O9         3.9090    9.9310   50.9280 O.3   291  INH291     -0.1890
     19  P2         2.7490   10.9630   51.2990 P.3   291  INH291      0.4170
     20  H1         4.6820    8.6900   54.0930 H     291  INH291      0.1720
     21  O12        3.2740   12.2260   51.8700 O.3   291  INH291     -0.3010
     22  H12        3.3460   12.9160   51.2210 H     291  INH291      0.2230
     23  O11        1.9120   10.9880   50.0690 O.3   291  INH291     -0.3010
     24  H          2.0190   11.8430   49.6240 H     291  INH291      0.2230
     25  O10        1.9990   10.2810   52.5580 O.3   291  INH291     -0.3010
     26  H          1.9620    9.3200   52.4310 H     291  INH291      0.2230
     27  O7         2.4070    7.9600   50.5610 O.3   291  INH291     -0.3070
     28  H          2.3960    7.0030   50.4020 H     291  INH291      0.2220
     29  O3         6.3260   13.3070   49.2160 O.3   291  INH291     -0.3880
     30  H6         5.6930   13.4660   48.5270 H     291  INH291      0.2100
     31  O5         6.3280   11.5650   47.1650 O.3   291  INH291     -0.3900
     32  H9         6.5980   10.8530   46.5970 H     291  INH291      0.2100
@<TRIPOS>BOND
     1    32    31    1
     2    31    11    1
     3    14    12    1
     4    14    15    1
     5    11    12    1
     6    11    10    1
     7    30    29    1
     8    12    13    1
     9    15    16    1
    10    29    10    1
    11    10     9    1
    12    24    23    1
    13    13     9    1
    14    23    19    1
    15    16    27    1
    16    16    17    2
    17    16    18    1
    18    28    27    1
    19     9     1    1
    20    18    19    1
    21    22    21    1
    22    19    21    1
    23    19    25    1
    24    19     7    1
    25     6     1    1
    26     6     5    2
    27     1     2    1
    28     5     4    1
    29    26    25    1
    30     2     7    1
    31     2     3    1
    32     4     3   am
    33     4     8    2
    34     3    20    1
