@<TRIPOS>MOLECULE
./ligand/2epn_lig.pdb
 28 29 0 0 0
SMALL
GASTEIGER

@<TRIPOS>ATOM
      1  C1        23.2810    6.4870   40.3750 C.3   1255  INH1255     0.1242
      2  C2        24.7020    6.7500   39.8140 C.3   1255  INH1255     0.0732
      3  C3        25.3080    8.0190   40.3920 C.3   1255  INH1255     0.1021
      4  C4        24.3770    9.2570   40.3220 C.3   1255  INH1255     0.1108
      5  C5        23.0910    8.8210   41.0270 C.3   1255  INH1255     0.1114
      6  C6        22.0420    9.9350   41.0520 C.3   1255  INH1255     0.0730
      7  C7        25.0690    5.1380   41.5210 C.3   1255  INH1255     0.0932
      8  C8        25.7220    4.0330   42.3000 C.3   1255  INH1255    -0.0347
      9  N1        25.5010    5.6390   40.3670 N.3   1255  INH1255    -0.2920
     10  S1        23.5370    5.7540   42.0370 S.3   1255  INH1255    -0.1035
     11  O1        26.5790    8.3580   39.7100 O.3   1255  INH1255    -0.3875
     12  O2        24.9680   10.4030   40.9640 O.3   1255  INH1255    -0.3865
     13  O3        22.5000    7.6720   40.3910 O.3   1255  INH1255    -0.3563
     14  O4        21.6320   10.2300   39.7260 O.3   1255  INH1255    -0.3924
     15  H1        22.7660    5.7540   39.7370 H     1255  INH1255     0.0730
     16  H2        24.7050    6.7730   38.7140 H     1255  INH1255     0.0521
     17  H3        25.5250    7.8220   41.4520 H     1255  INH1255     0.0637
     18  H4        24.1650    9.5100   39.2730 H     1255  INH1255     0.0646
     19  H5        23.3470    8.5570   42.0640 H     1255  INH1255     0.0646
     20  H6        21.1720    9.6060   41.6400 H     1255  INH1255     0.0584
     21  H7        22.4750   10.8360   41.5110 H     1255  INH1255     0.0584
     22  H8        26.6810    3.7710   41.8300 H     1255  INH1255     0.0257
     23  H9        25.0640    3.1510   42.3070 H     1255  INH1255     0.0257
     24  H10       25.8990    4.3670   43.3330 H     1255  INH1255     0.0257
     25  H11       26.9380    9.1530   40.0870 H     1255  INH1255     0.2100
     26  H12       24.3740   11.1420   40.9030 H     1255  INH1255     0.2100
     27  H13       20.9810   10.9220   39.7420 H     1255  INH1255     0.2095
     28  H14       26.3380    5.2750   39.8900 H     1255  INH1255     0.1237
@<TRIPOS>BOND
     1    16     2    1
     2    18     4    1
     3    11    25    1
     4    11     3    1
     5    14    27    1
     6    14     6    1
     7    15     1    1
     8     2     9    1
     9     2     1    1
    10     2     3    1
    11    28     9    1
    12     4     3    1
    13     4    12    1
    14     4     5    1
    15     9     7    1
    16     1    13    1
    17     1    10    1
    18    13     5    1
    19     3    17    1
    20    26    12    1
    21     5     6    1
    22     5    19    1
    23     6    21    1
    24     6    20    1
    25     7    10    1
    26     7     8    1
    27    22     8    1
    28     8    23    1
    29     8    24    1
