@<TRIPOS>MOLECULE
/tmp/ewbell/vina_2epn_2epn_lig/vina/vina5.pdbqt
 18 19 0 0 0
SMALL
GASTEIGER

@<TRIPOS>ATOM
      1  C1        17.5210   13.3330   36.5970 C.3   1255  INH1255     0.2100
      2  C2        18.2630   12.6580   37.7790 C.3   1255  INH1255     0.1480
      3  C3        18.0290   11.1560   37.8050 C.3   1255  INH1255     0.1750
      4  C4        16.5390   10.7420   37.6930 C.3   1255  INH1255     0.1800
      5  C5        16.0400   11.4140   36.4120 C.3   1255  INH1255     0.1780
      6  C7        19.9600   12.9230   36.1370 C.3   1255  INH1255     0.1380
      7  C8        21.3270   13.0710   35.5330 C.3   1255  INH1255     0.0430
      8  N1        19.6870   12.8340   37.4360 N.3   1255  INH1255    -0.3990
      9  S1        18.5640   13.0220   35.1210 S.3   1255  INH1255    -0.1110
     10  O3        16.1940   12.8440   36.4680 O.3   1255  INH1255    -0.3630
     11  H14       20.4220   12.8850   38.1560 H     1255  INH1255     0.1550
     12  C6        14.5650   11.1110   36.1400 C.3   1255  INH1255     0.1980
     13  O4        13.8690   11.0000   37.3720 O.3   1255  INH1255    -0.3980
     14  H13       14.1840   11.6640   37.9750 H     1255  INH1255     0.2090
     15  O2        16.3880    9.3110   37.6320 O.3   1255  INH1255    -0.3900
     16  H12       16.8420    8.9120   38.3650 H     1255  INH1255     0.2100
     17  O1        18.5850   10.5530   39.0390 O.3   1255  INH1255    -0.3910
     18  H11       18.7990    9.6420   38.8780 H     1255  INH1255     0.2100
@<TRIPOS>BOND
     1     9     6    1
     2     9     1    1
     3     7     6    1
     4     6     8    1
     5    12     5    1
     6    12    13    1
     7     5    10    1
     8     5     4    1
     9    10     1    1
    10     1     2    1
    11    13    14    1
    12     8     2    1
    13     8    11    1
    14    15     4    1
    15    15    16    1
    16     4     3    1
    17     2     3    1
    18     3    17    1
    19    18    17    1
