@<TRIPOS>MOLECULE
/tmp/ewbell/vina_2epn_2epn_lig/vina/vina3.pdbqt
 18 19 0 0 0
SMALL
GASTEIGER

@<TRIPOS>ATOM
      1  C1        21.9310    7.9520   40.0450 C.3   1255  INH1255     0.2100
      2  C2        22.6110    7.3400   38.7930 C.3   1255  INH1255     0.1480
      3  C3        22.6070    8.3090   37.6210 C.3   1255  INH1255     0.1750
      4  C4        21.2240    8.9430   37.3260 C.3   1255  INH1255     0.1800
      5  C5        20.7960    9.5850   38.6470 C.3   1255  INH1255     0.1780
      6  C7        24.4430    8.0790   40.1130 C.3   1255  INH1255     0.1380
      7  C8        25.8370    8.1750   40.6630 C.3   1255  INH1255     0.0430
      8  N1        24.0240    7.2090   39.1980 N.3   1255  INH1255    -0.3990
      9  S1        23.1890    9.0560   40.7960 S.3   1255  INH1255    -0.1110
     10  O3        20.7220    8.6150   39.7090 O.3   1255  INH1255    -0.3630
     11  H14       24.6450    6.4910   38.7990 H     1255  INH1255     0.1550
     12  C6        19.4310   10.2680   38.5400 C.3   1255  INH1255     0.1980
     13  O4        18.6600    9.9720   39.6940 O.3   1255  INH1255    -0.3980
     14  H13       17.7530    9.8400   39.4440 H     1255  INH1255     0.2090
     15  O2        21.3010    9.9170   36.2670 O.3   1255  INH1255    -0.3900
     16  H12       20.9070   10.7320   36.5560 H     1255  INH1255     0.2100
     17  O1        23.0860    7.6470   36.3850 O.3   1255  INH1255    -0.3910
     18  H11       23.4920    8.2930   35.8180 H     1255  INH1255     0.2100
@<TRIPOS>BOND
     1    18    17    1
     2    15    16    1
     3    15     4    1
     4    17     3    1
     5     4     3    1
     6     4     5    1
     7     3     2    1
     8    12     5    1
     9    12    13    1
    10     5    10    1
    11     2     8    1
    12     2     1    1
    13    11     8    1
    14     8     6    1
    15    14    13    1
    16    10     1    1
    17     1     9    1
    18     6     7    1
    19     6     9    1
