@<TRIPOS>MOLECULE
/tmp/ewbell/vina_2epn_2epn_lig/vina/vina1.pdbqt
 18 19 0 0 0
SMALL
GASTEIGER

@<TRIPOS>ATOM
      1  C1        22.3380    7.3650   40.6860 C.3   1255  INH1255     0.2100
      2  C2        23.1060    8.7040   40.8250 C.3   1255  INH1255     0.1480
      3  C3        24.5110    8.6090   40.2510 C.3   1255  INH1255     0.1750
      4  C4        25.3170    7.3800   40.7440 C.3   1255  INH1255     0.1800
      5  C5        24.4390    6.1730   40.4080 C.3   1255  INH1255     0.1780
      6  C7        21.7480    9.0410   38.9050 C.3   1255  INH1255     0.1380
      7  C8        20.9640    9.7510   37.8390 C.3   1255  INH1255     0.0430
      8  N1        22.3700    9.6180   39.9290 N.3   1255  INH1255    -0.3990
      9  S1        21.7560    7.3120   38.9470 S.3   1255  INH1255    -0.1110
     10  O3        23.1510    6.2590   41.0470 O.3   1255  INH1255    -0.3630
     11  H14       22.3400   10.6350   40.0880 H     1255  INH1255     0.1550
     12  C6        25.0870    4.8530   40.8310 C.3   1255  INH1255     0.1980
     13  O4        26.0450    5.1000   41.8480 O.3   1255  INH1255    -0.3980
     14  H13       26.5600    4.3160   41.9960 H     1255  INH1255     0.2090
     15  O2        26.6020    7.2940   40.0990 O.3   1255  INH1255    -0.3900
     16  H12       27.1950    7.9270   40.4860 H     1255  INH1255     0.2100
     17  O1        25.2940    9.8290   40.5590 O.3   1255  INH1255    -0.3910
     18  H11       26.1240    9.7970   40.0970 H     1255  INH1255     0.2100
@<TRIPOS>BOND
     1     7     6    1
     2     6     9    1
     3     6     8    1
     4     9     1    1
     5     8    11    1
     6     8     2    1
     7    18    17    1
     8    15    16    1
     9    15     4    1
    10     3    17    1
    11     3     4    1
    12     3     2    1
    13     5     4    1
    14     5    12    1
    15     5    10    1
    16     1     2    1
    17     1    10    1
    18    12    13    1
    19    13    14    1
