@<TRIPOS>MOLECULE
/tmp/ewbell/vina_2epn_2epn_lig/vina/vina2.pdbqt
 18 19 0 0 0
SMALL
GASTEIGER

@<TRIPOS>ATOM
      1  C1        22.0420    7.2770   39.2540 C.3   1255  INH1255     0.2100
      2  C2        21.5140    8.4760   40.0840 C.3   1255  INH1255     0.1480
      3  C3        22.5780    9.5470   40.2630 C.3   1255  INH1255     0.1750
      4  C4        23.9460    9.0070   40.7570 C.3   1255  INH1255     0.1800
      5  C5        24.3320    7.9300   39.7420 C.3   1255  INH1255     0.1780
      6  C7        20.6710    8.8970   37.9020 C.3   1255  INH1255     0.1380
      7  C8        19.7930    9.4340   36.8100 C.3   1255  INH1255     0.0430
      8  N1        20.4890    9.0750   39.2080 N.3   1255  INH1255    -0.3990
      9  S1        21.9650    7.8200   37.5040 S.3   1255  INH1255    -0.1110
     10  O3        23.3410    6.8870   39.6720 O.3   1255  INH1255    -0.3630
     11  H14       19.6840    9.5970   39.5830 H     1255  INH1255     0.1550
     12  C6        25.6760    7.2780   40.0770 C.3   1255  INH1255     0.1980
     13  O4        26.7320    8.1310   39.6650 O.3   1255  INH1255    -0.3980
     14  H13       27.0720    7.8320   38.8290 H     1255  INH1255     0.2090
     15  O2        24.9360   10.0510   40.8210 O.3   1255  INH1255    -0.3900
     16  H12       25.4020    9.9960   41.6480 H     1255  INH1255     0.2100
     17  O1        22.1240   10.5920   41.2110 O.3   1255  INH1255    -0.3910
     18  H11       21.7280   11.3070   40.7270 H     1255  INH1255     0.2100
@<TRIPOS>BOND
     1     7     6    1
     2     9     6    1
     3     9     1    1
     4     6     8    1
     5    14    13    1
     6     8    11    1
     7     8     2    1
     8     1    10    1
     9     1     2    1
    10    13    12    1
    11    10     5    1
    12     5    12    1
    13     5     4    1
    14     2     3    1
    15     3     4    1
    16     3    17    1
    17    18    17    1
    18     4    15    1
    19    15    16    1
