@<TRIPOS>MOLECULE
/tmp/ewbell/vina_2epn_2epn_lig/vina/vina4.pdbqt
 18 19 0 0 0
SMALL
GASTEIGER

@<TRIPOS>ATOM
      1  C1        22.1830    8.0650   37.5630 C.3   1255  INH1255     0.2100
      2  C2        20.7760    8.4130   38.1160 C.3   1255  INH1255     0.1480
      3  C3        20.8360    9.5430   39.1310 C.3   1255  INH1255     0.1750
      4  C4        21.9030    9.3470   40.2380 C.3   1255  INH1255     0.1800
      5  C5        23.2180    9.1380   39.4830 C.3   1255  INH1255     0.1780
      6  C7        20.8480    9.5450   36.0280 C.3   1255  INH1255     0.1380
      7  C8        20.3750   10.2100   34.7670 C.3   1255  INH1255     0.0430
      8  N1        20.0740    8.9680   36.9420 N.3   1255  INH1255    -0.3990
      9  S1        22.5450    9.3450   36.3010 S.3   1255  INH1255    -0.1110
     10  O3        23.1490    8.0020   38.6010 O.3   1255  INH1255    -0.3630
     11  H14       19.0510    8.9110   36.8380 H     1255  INH1255     0.1550
     12  C6        24.3990    8.9240   40.4320 C.3   1255  INH1255     0.1980
     13  O4        24.9790   10.1780   40.7570 O.3   1255  INH1255    -0.3980
     14  H13       25.3430   10.1410   41.6340 H     1255  INH1255     0.2090
     15  O2        21.9740   10.4870   41.1150 O.3   1255  INH1255    -0.3900
     16  H12       22.1390   10.1940   42.0040 H     1255  INH1255     0.2100
     17  O1        19.5210    9.7360   39.7870 O.3   1255  INH1255    -0.3910
     18  H11       19.2990    8.9580   40.2860 H     1255  INH1255     0.2100
@<TRIPOS>BOND
     1     7     6    1
     2     6     9    1
     3     6     8    1
     4     9     1    1
     5    11     8    1
     6     8     2    1
     7     1     2    1
     8     1    10    1
     9     2     3    1
    10    10     5    1
    11     3    17    1
    12     3     4    1
    13     5     4    1
    14     5    12    1
    15    17    18    1
    16     4    15    1
    17    12    13    1
    18    13    14    1
    19    15    16    1
