@<TRIPOS>MOLECULE
./ligand/3b7r_lig.pdb
 55 56 0 0 0
SMALL
GASTEIGER

@<TRIPOS>ATOM
      1  N1        33.1880    8.2850    0.7060 N.am  614  INH614     -0.3022
      2  C1        32.6930    9.0770   -0.3730 C.3   614  INH614      0.1218
      3  C2        33.7680   10.1380   -0.7670 C.2   614  INH614      0.3756
      4  O1        34.3970   10.8460    0.0160 O.co2 614  INH614     -0.2443
      5  C3        31.4260    9.8110    0.0460 C.3   614  INH614     -0.0361
      6  O2        33.9410   10.2050   -2.0880 O.co2 614  INH614     -0.2443
      7  H1        32.6300    8.1850    1.5300 H     614  INH614      0.1495
      8  H2        32.4760    8.4280   -1.2340 H     614  INH614      0.0613
      9  H3        31.0580   10.4160   -0.7950 H     614  INH614      0.0253
     10  H4        31.6480   10.4680    0.9000 H     614  INH614      0.0253
     11  H5        30.6570    9.0800    0.3360 H     614  INH614      0.0253
     12  C4        34.2170    2.3640    1.4430 C.3   614  INH614      0.0519
     13  N2        34.1820    1.3220    2.4450 N.4   614  INH614      0.2275
     14  C5        32.8250    2.6140    0.8130 C.3   614  INH614     -0.0125
     15  P1        34.9260    3.8990    2.2280 P.3   614  INH614      0.2815
     16  O3        36.3960    3.6750    2.6340 O.3   614  INH614     -0.1634
     17  O4        34.0400    4.0820    3.5170 O.2   614  INH614     -0.2825
     18  C6        34.5310    5.3200    1.1620 C.3   614  INH614      0.0431
     19  C7        34.7190    6.6990    1.7610 C.3   614  INH614      0.0485
     20  C8        34.4030    7.6590    0.6470 C.2   614  INH614      0.2176
     21  O5        35.0260    7.5960   -0.3910 O.2   614  INH614     -0.2755
     22  C9        36.1370    7.0320    2.2490 C.3   614  INH614     -0.0161
     23  C10       36.2480    8.4320    2.8160 C.ar  614  INH614     -0.0466
     24  C11       36.3890    9.5610    1.9820 C.ar  614  INH614     -0.0580
     25  C12       36.3110   10.8720    2.4490 C.ar  614  INH614     -0.0538
     26  C13       36.1590   11.0730    3.8250 C.ar  614  INH614     -0.0179
     27  C14       35.9600    9.9610    4.6360 C.ar  614  INH614     -0.0538
     28  C15       36.0170    8.6500    4.1580 C.ar  614  INH614     -0.0580
     29  C16       36.0680   12.4610    4.3410 C.ar  614  INH614     -0.0179
     30  C17       35.2070   12.7980    5.4030 C.ar  614  INH614     -0.0540
     31  C18       35.1200   14.1300    5.8460 C.ar  614  INH614     -0.0612
     32  C19       35.8640   15.1660    5.2190 C.ar  614  INH614     -0.0617
     33  C20       36.7050   14.8250    4.1400 C.ar  614  INH614     -0.0612
     34  C21       36.7770   13.5090    3.6730 C.ar  614  INH614     -0.0540
     35  H6        32.4520    1.6810    0.3650 H     614  INH614      0.0290
     36  H7        32.9080    3.3870    0.0340 H     614  INH614      0.0290
     37  H8        32.1250    2.9520    1.5920 H     614  INH614      0.0290
     38  H9        34.8930    2.0450    0.6360 H     614  INH614      0.0952
     39  H10       33.8010    0.4810    2.0410 H     614  INH614      0.2002
     40  H11       33.6030    1.6170    3.2160 H     614  INH614      0.2002
     41  H12       35.1170    1.1430    2.7760 H     614  INH614      0.2002
     42  H13       35.1720    5.2550    0.2700 H     614  INH614      0.0374
     43  H14       33.4760    5.2280    0.8630 H     614  INH614      0.0374
     44  H15       34.0180    6.8250    2.5990 H     614  INH614      0.0402
     45  H16       36.4170    6.3120    3.0320 H     614  INH614      0.0321
     46  H17       36.8310    6.9400    1.4010 H     614  INH614      0.0321
     47  H18       36.5670    9.4010    0.9250 H     614  INH614      0.0620
     48  H19       36.3670   11.7120    1.7660 H     614  INH614      0.0624
     49  H20       35.7510   10.1190    5.6880 H     614  INH614      0.0624
     50  H21       35.8810    7.8130    4.8340 H     614  INH614      0.0620
     51  H22       34.6100   12.0290    5.8800 H     614  INH614      0.0624
     52  H23       34.4730   14.3710    6.6820 H     614  INH614      0.0618
     53  H24       35.7870   16.1920    5.5610 H     614  INH614      0.0618
     54  H25       37.3040   15.5940    3.6660 H     614  INH614      0.0618
     55  H26       37.3750   13.2810    2.7980 H     614  INH614      0.0624
@<TRIPOS>BOND
     1     1    20   am
     2     1     7    1
     3     1     2    1
     4     2     5    1
     5     2     3    1
     6     2     8    1
     7     3     4   ar
     8     3     6   ar
     9     5    10    1
    10     5    11    1
    11     5     9    1
    12    12    38    1
    13    12    15    1
    14    12    13    1
    15    12    14    1
    16    13    41    1
    17    13    40    1
    18    13    39    1
    19    14    37    1
    20    14    36    1
    21    14    35    1
    22    15    18    1
    23    15    17    2
    24    15    16    1
    25    18    43    1
    26    18    42    1
    27    18    19    1
    28    19    44    1
    29    19    22    1
    30    19    20    1
    31    20    21    2
    32    22    46    1
    33    22    45    1
    34    22    23    1
    35    23    28   ar
    36    23    24   ar
    37    24    47    1
    38    24    25   ar
    39    25    48    1
    40    25    26   ar
    41    26    29    1
    42    26    27   ar
    43    27    49    1
    44    27    28   ar
    45    28    50    1
    46    29    34   ar
    47    29    30   ar
    48    30    51    1
    49    30    31   ar
    50    31    52    1
    51    31    32   ar
    52    32    53    1
    53    32    33   ar
    54    33    54    1
    55    33    34   ar
    56    34    55    1
