@<TRIPOS>MOLECULE
/tmp/ewbell/vina_3b7r_3b7r_lig/vina/vina2.pdbqt
 35 36 0 0 0
SMALL
GASTEIGER

@<TRIPOS>ATOM
      1  C7        33.4010    8.9570    2.5180 C.3   614  INH614      0.0910
      2  C6        34.1420    7.6490    2.7020 C.3   614  INH614      0.1100
      3  P1        35.3960    7.2310    1.4500 P.3   614  INH614      0.1290
      4  O4        34.8530    7.8280    0.0970 O.2   614  INH614     -0.6720
      5  C4        36.9180    8.2570    1.7820 C.3   614  INH614      0.2610
      6  C5        37.2510    8.3430    3.2910 C.3   614  INH614      0.0500
      7  N2        36.7170    9.5610    1.1920 N.4   614  INH614     -0.0670
      8  H12       36.8820   10.2730    1.8850 H     614  INH614      0.2750
      9  H11       37.3600    9.6850    0.4240 H     614  INH614      0.2750
     10  H10       35.7710    9.6330    0.8520 H     614  INH614      0.2750
     11  O3        35.7690    5.7490    1.2540 O.3   614  INH614     -0.3480
     12  H         34.9800    5.1980    1.3730 H     614  INH614      0.2180
     13  C9        31.9010    8.9310    2.8450 C.3   614  INH614      0.0530
     14  C10       31.0380    9.3550    1.6740 C.ar  614  INH614     -0.0570
     15  C15       31.6300    9.7830    0.5050 C.ar  614  INH614      0.0080
     16  C14       30.8310   10.3260   -0.5050 C.ar  614  INH614      0.0130
     17  C13       29.4480   10.4270   -0.4050 C.ar  614  INH614     -0.0260
     18  C12       28.8430   10.0750    0.8060 C.ar  614  INH614      0.0130
     19  C11       29.6420    9.5140    1.8010 C.ar  614  INH614      0.0080
     20  C16       28.6150   11.0310   -1.4740 C.ar  614  INH614     -0.0260
     21  C21       28.1910   10.2240   -2.5760 C.ar  614  INH614      0.0120
     22  C20       27.4030   10.7700   -3.5950 C.ar  614  INH614      0.0010
     23  C19       26.9340   12.0980   -3.5150 C.ar  614  INH614      0.0000
     24  C18       27.3150   12.8800   -2.3910 C.ar  614  INH614      0.0010
     25  C17       28.1300   12.3490   -1.3750 C.ar  614  INH614      0.0120
     26  C8        34.0430    9.9130    3.4870 C.2   614  INH614      0.2230
     27  N1        33.5710    9.8910    4.7710 N.am  614  INH614     -0.3470
     28  H1        33.0600    9.0910    5.0860 H     614  INH614      0.1630
     29  O5        34.6670   10.8620    3.0640 O.2   614  INH614     -0.2730
     30  C1        33.7870   10.9750    5.6740 C.3   614  INH614      0.1780
     31  C3        32.4640   11.6480    6.0190 C.3   614  INH614      0.0430
     32  C2        34.4180   10.4280    6.9920 C.2   614  INH614      0.1630
     33  O1        35.2880    9.5620    7.0650 O.2   614  INH614     -0.6480
     34  O2        33.8990   11.0120    8.0730 O.3   614  INH614     -0.7750
     35  H         34.2140   10.7850    8.9250 H     614  INH614      0.1670
@<TRIPOS>BOND
     1    22    23   ar
     2    22    21   ar
     3    23    24   ar
     4    21    20   ar
     5    24    25   ar
     6    20    25   ar
     7    20    17    1
     8    16    17   ar
     9    16    15   ar
    10    17    18   ar
    11     4     3    2
    12     9     7    1
    13    15    14   ar
    14    18    19   ar
    15    10     7    1
    16     7     5    1
    17     7     8    1
    18    11    12    1
    19    11     3    1
    20     3     5    1
    21     3     2    1
    22    14    19   ar
    23    14    13    1
    24     5     6    1
    25     1     2    1
    26     1    13    1
    27     1    26    1
    28    29    26    2
    29    26    27   am
    30    27    28    1
    31    27    30    1
    32    30    31    1
    33    30    32    1
    34    32    33    2
    35    32    34    1
    36    34    35    1
