@<TRIPOS>MOLECULE
/tmp/ewbell/vina_3b7r_3b7r_lig/vina/vina1.pdbqt
 35 36 0 0 0
SMALL
GASTEIGER

@<TRIPOS>ATOM
      1  C7        33.7430    8.4820    0.2060 C.3   614  INH614      0.0910
      2  C6        34.8120    9.2790    0.9250 C.3   614  INH614      0.1100
      3  P1        34.7840    9.2390    2.7440 P.3   614  INH614      0.1290
      4  O4        33.6080    8.2610    3.1240 O.2   614  INH614     -0.6720
      5  C4        36.2990    8.3240    3.3320 C.3   614  INH614      0.2610
      6  C5        37.3420    9.2680    3.9770 C.3   614  INH614      0.0500
      7  N2        36.8450    7.5920    2.2110 N.4   614  INH614     -0.0670
      8  H12       37.8320    7.4470    2.3520 H     614  INH614      0.2750
      9  H11       36.3820    6.7000    2.1350 H     614  INH614      0.2750
     10  H10       36.6990    8.1190    1.3650 H     614  INH614      0.2750
     11  O3        34.6210   10.5690    3.5030 O.3   614  INH614     -0.3480
     12  H         33.8400   11.0380    3.1710 H     614  INH614      0.2180
     13  C9        33.3940    8.9530   -1.2140 C.3   614  INH614      0.0530
     14  C10       31.9130    9.2120   -1.3980 C.ar  614  INH614     -0.0570
     15  C15       31.2710    8.7510   -2.5280 C.ar  614  INH614      0.0080
     16  C14       29.9490    9.1370   -2.7660 C.ar  614  INH614      0.0130
     17  C13       29.2260    9.9440   -1.8950 C.ar  614  INH614     -0.0260
     18  C12       29.8890   10.4870   -0.7890 C.ar  614  INH614      0.0130
     19  C11       31.2010   10.0810   -0.5450 C.ar  614  INH614      0.0080
     20  C16       27.8320   10.3680   -2.1740 C.ar  614  INH614     -0.0260
     21  C21       26.7760    9.9260   -1.3160 C.ar  614  INH614      0.0120
     22  C20       25.4550   10.3140   -1.5580 C.ar  614  INH614      0.0010
     23  C19       25.1430   11.2200   -2.5930 C.ar  614  INH614      0.0000
     24  C18       26.2030   11.6970   -3.4110 C.ar  614  INH614      0.0010
     25  C17       27.5320   11.2920   -3.1950 C.ar  614  INH614      0.0120
     26  C8        34.3050    7.0920    0.0800 C.2   614  INH614      0.2230
     27  N1        33.7560    6.1350    0.8890 N.am  614  INH614     -0.3470
     28  H1        32.8580    6.3010    1.2950 H     614  INH614      0.1630
     29  O5        35.3920    6.9320   -0.4320 O.2   614  INH614     -0.2730
     30  C1        34.4270    4.9070    1.1690 C.3   614  INH614      0.1780
     31  C3        34.5870    4.7210    2.6720 C.3   614  INH614      0.0430
     32  C2        33.5780    3.7200    0.6150 C.2   614  INH614      0.1630
     33  O1        32.4040    3.4860    0.8940 O.2   614  INH614     -0.6480
     34  O2        34.2800    2.9530   -0.2200 O.3   614  INH614     -0.7750
     35  H         35.0690    3.2790   -0.6050 H     614  INH614      0.1670
@<TRIPOS>BOND
     1    24    25   ar
     2    24    23   ar
     3    25    20   ar
     4    16    15   ar
     5    16    17   ar
     6    23    22   ar
     7    15    14   ar
     8    20    17    1
     9    20    21   ar
    10    17    18   ar
    11    22    21   ar
    12    14    13    1
    13    14    19   ar
    14    13     1    1
    15    18    19   ar
    16    35    34    1
    17    29    26    2
    18    34    32    1
    19    26     1    1
    20    26    27   am
    21     1     2    1
    22    32    33    2
    23    32    30    1
    24    27    30    1
    25    27    28    1
    26     2     3    1
    27    30    31    1
    28    10     7    1
    29     9     7    1
    30     7     8    1
    31     7     5    1
    32     3     4    2
    33     3     5    1
    34     3    11    1
    35    12    11    1
    36     5     6    1
