@<TRIPOS>MOLECULE
/tmp/ewbell/vina_3b7r_3b7r_lig/vina/vina5.pdbqt
 35 36 0 0 0
SMALL
GASTEIGER

@<TRIPOS>ATOM
      1  C7        34.2820   11.5620    5.4940 C.3   614  INH614      0.0910
      2  C6        35.3200   10.5000    5.7950 C.3   614  INH614      0.1100
      3  P1        36.7550   10.4130    4.6790 P.3   614  INH614      0.1290
      4  O4        37.9640    9.9650    5.5840 O.2   614  INH614     -0.6720
      5  C4        36.5210    8.9560    3.5380 C.3   614  INH614      0.2610
      6  C5        36.3530    9.3870    2.0610 C.3   614  INH614      0.0500
      7  N2        35.3920    8.1890    4.0150 N.4   614  INH614     -0.0670
      8  H12       35.3080    8.2980    5.0130 H     614  INH614      0.2750
      9  H11       34.5500    8.5200    3.5690 H     614  INH614      0.2750
     10  H10       35.5300    7.2170    3.7920 H     614  INH614      0.2750
     11  O3        37.1390   11.6740    3.8820 O.3   614  INH614     -0.3480
     12  H         37.2160   12.4280    4.4860 H     614  INH614      0.2180
     13  C9        32.8330   11.0690    5.3690 C.3   614  INH614      0.0530
     14  C10       32.4880   10.6150    3.9660 C.ar  614  INH614     -0.0570
     15  C15       33.0790   11.2270    2.8810 C.ar  614  INH614      0.0080
     16  C14       32.6310   10.9140    1.5950 C.ar  614  INH614      0.0130
     17  C13       31.6300    9.9810    1.3460 C.ar  614  INH614     -0.0260
     18  C12       30.9650    9.4150    2.4380 C.ar  614  INH614      0.0130
     19  C11       31.4310    9.7140    3.7180 C.ar  614  INH614      0.0080
     20  C16       31.1460    9.6800   -0.0240 C.ar  614  INH614     -0.0260
     21  C21       29.9030   10.2300   -0.4680 C.ar  614  INH614      0.0120
     22  C20       29.4270    9.9600   -1.7560 C.ar  614  INH614      0.0010
     23  C19       30.2000    9.2200   -2.6740 C.ar  614  INH614      0.0000
     24  C18       31.4590    8.7200   -2.2450 C.ar  614  INH614      0.0010
     25  C17       31.9350    8.9600   -0.9430 C.ar  614  INH614      0.0120
     26  C8        34.3260   12.4990    6.6700 C.2   614  INH614      0.2230
     27  N1        34.4920   13.8270    6.3880 N.am  614  INH614     -0.3470
     28  H1        34.2920   14.1550    5.4650 H     614  INH614      0.1630
     29  O5        34.5570   12.0590    7.7760 O.2   614  INH614     -0.2730
     30  C1        34.9430   14.7580    7.3720 C.3   614  INH614      0.1780
     31  C3        35.9100   15.7580    6.7520 C.3   614  INH614      0.0430
     32  C2        33.7170   15.5440    7.9340 C.2   614  INH614      0.1630
     33  O1        32.6430   15.7070    7.3580 O.2   614  INH614     -0.6480
     34  O2        33.9600   16.0440    9.1460 O.3   614  INH614     -0.7750
     35  H         33.5570   15.6610    9.9000 H     614  INH614      0.1670
@<TRIPOS>BOND
     1    23    24   ar
     2    23    22   ar
     3    24    25   ar
     4    22    21   ar
     5    25    20   ar
     6    21    20   ar
     7    20    17    1
     8    17    16   ar
     9    17    18   ar
    10    16    15   ar
    11     6     5    1
    12    18    19   ar
    13    15    14   ar
    14     5     7    1
    15     5     3    1
    16     9     7    1
    17    19    14   ar
    18    10     7    1
    19    11    12    1
    20    11     3    1
    21    14    13    1
    22     7     8    1
    23     3     4    2
    24     3     2    1
    25    13     1    1
    26    28    27    1
    27     1     2    1
    28     1    26    1
    29    27    26   am
    30    27    30    1
    31    26    29    2
    32    31    30    1
    33    33    32    2
    34    30    32    1
    35    32    34    1
    36    34    35    1
