@<TRIPOS>MOLECULE
/tmp/ewbell/vina_3b7r_3b7r_lig/vina/vina3.pdbqt
 35 36 0 0 0
SMALL
GASTEIGER

@<TRIPOS>ATOM
      1  C7        34.0650    7.9880    2.1370 C.3   614  INH614      0.0910
      2  C6        34.8410    7.9390    3.4380 C.3   614  INH614      0.1100
      3  P1        34.8440    9.4490    4.4520 P.3   614  INH614      0.1290
      4  O4        34.8940    8.9520    5.9460 O.2   614  INH614     -0.6720
      5  C4        36.4900   10.2970    4.2350 C.3   614  INH614      0.2610
      6  C5        36.3920   11.5510    3.3340 C.3   614  INH614      0.0500
      7  N2        37.4300    9.3270    3.7200 N.4   614  INH614     -0.0670
      8  H12       37.3310    8.4600    4.2250 H     614  INH614      0.2750
      9  H11       37.2460    9.1680    2.7410 H     614  INH614      0.2750
     10  H10       38.3680    9.6770    3.8320 H     614  INH614      0.2750
     11  O3        33.6870   10.4510    4.2750 O.3   614  INH614     -0.3480
     12  H         33.8840   11.2640    4.7660 H     614  INH614      0.2180
     13  C9        34.3040    9.2260    1.2590 C.3   614  INH614      0.0530
     14  C10       33.0920    9.6010    0.4320 C.ar  614  INH614     -0.0570
     15  C15       32.1290   10.4320    0.9640 C.ar  614  INH614      0.0080
     16  C14       30.9400   10.6370    0.2580 C.ar  614  INH614      0.0130
     17  C13       30.6890   10.0660   -0.9840 C.ar  614  INH614     -0.0260
     18  C12       31.6190    9.1570   -1.4980 C.ar  614  INH614      0.0130
     19  C11       32.8120    8.9740   -0.7990 C.ar  614  INH614      0.0080
     20  C16       29.4110   10.2710   -1.7100 C.ar  614  INH614     -0.0260
     21  C21       28.5920   11.4000   -1.3900 C.ar  614  INH614      0.0120
     22  C20       27.3840   11.6140   -2.0620 C.ar  614  INH614      0.0010
     23  C19       26.9900   10.7800   -3.1290 C.ar  614  INH614      0.0000
     24  C18       27.8330    9.6900   -3.4770 C.ar  614  INH614      0.0010
     25  C17       29.0360    9.4480   -2.7900 C.ar  614  INH614      0.0120
     26  C8        34.5370    6.7960    1.3510 C.2   614  INH614      0.2230
     27  N1        33.9520    5.5960    1.6490 N.am  614  INH614     -0.3470
     28  H1        33.0760    5.5910    2.1320 H     614  INH614      0.1630
     29  O5        35.5980    6.8480    0.7660 O.2   614  INH614     -0.2730
     30  C1        34.5530    4.3520    1.2910 C.3   614  INH614      0.1780
     31  C3        34.9370    3.5700    2.5400 C.3   614  INH614      0.0430
     32  C2        33.5290    3.5030    0.4760 C.2   614  INH614      0.1630
     33  O1        32.3300    3.3910    0.7250 O.2   614  INH614     -0.6480
     34  O2        34.1040    2.8850   -0.5560 O.3   614  INH614     -0.7750
     35  H         34.4830    2.0360   -0.4420 H     614  INH614      0.1670
@<TRIPOS>BOND
     1    24    23   ar
     2    24    25   ar
     3    23    22   ar
     4    25    20   ar
     5    22    21   ar
     6    20    21   ar
     7    20    17    1
     8    18    17   ar
     9    18    19   ar
    10    17    16   ar
    11    19    14   ar
    12    34    35    1
    13    34    32    1
    14    16    15   ar
    15    14    15   ar
    16    14    13    1
    17    32    33    2
    18    32    30    1
    19    29    26    2
    20    13     1    1
    21    30    27    1
    22    30    31    1
    23    26    27   am
    24    26     1    1
    25    27    28    1
    26     1     2    1
    27     9     7    1
    28     6     5    1
    29     2     3    1
    30     7    10    1
    31     7     8    1
    32     7     5    1
    33     5     3    1
    34    11     3    1
    35    11    12    1
    36     3     4    2
