@<TRIPOS>MOLECULE
/tmp/ewbell/vina_3b7r_3b7r_lig/vina/vina4.pdbqt
 35 36 0 0 0
SMALL
GASTEIGER

@<TRIPOS>ATOM
      1  C7        34.0780    9.8330    3.1330 C.3   614  INH614      0.0910
      2  C6        35.0800    8.7210    3.3680 C.3   614  INH614      0.1100
      3  P1        36.3410    8.4650    2.0820 P.3   614  INH614      0.1290
      4  O4        37.5790    7.8370    2.8270 O.2   614  INH614     -0.6720
      5  C4        35.7720    7.0800    0.9710 C.3   614  INH614      0.2610
      6  C5        34.3480    7.3210    0.4140 C.3   614  INH614      0.0500
      7  N2        35.8650    5.8420    1.7130 N.4   614  INH614     -0.0670
      8  H12       36.7490    5.8050    2.1960 H     614  INH614      0.2750
      9  H11       35.1130    5.7960    2.3840 H     614  INH614      0.2750
     10  H10       35.7950    5.0640    1.0770 H     614  INH614      0.2750
     11  O3        36.7950    9.6800    1.2500 O.3   614  INH614     -0.3480
     12  H         37.7460    9.6130    1.0710 H     614  INH614      0.2180
     13  C9        32.6610    9.5860    3.6720 C.3   614  INH614      0.0530
     14  C10       31.5880    9.8150    2.6270 C.ar  614  INH614     -0.0570
     15  C15       30.2900    9.4250    2.8800 C.ar  614  INH614      0.0080
     16  C14       29.3470    9.4880    1.8510 C.ar  614  INH614      0.0130
     17  C13       29.6450    9.9620    0.5780 C.ar  614  INH614     -0.0260
     18  C12       30.9740   10.2820    0.2830 C.ar  614  INH614      0.0130
     19  C11       31.9060   10.2370    1.3200 C.ar  614  INH614      0.0080
     20  C16       28.6400    9.9980   -0.5130 C.ar  614  INH614     -0.0260
     21  C21       27.2520    9.8510   -0.1980 C.ar  614  INH614      0.0120
     22  C20       26.2870    9.8840   -1.2090 C.ar  614  INH614      0.0010
     23  C19       26.6460   10.1530   -2.5460 C.ar  614  INH614      0.0000
     24  C18       28.0210   10.3510   -2.8460 C.ar  614  INH614      0.0010
     25  C17       29.0040   10.2920   -1.8420 C.ar  614  INH614      0.0120
     26  C8        34.6270   11.0220    3.8740 C.2   614  INH614      0.2230
     27  N1        34.6410   10.9370    5.2400 N.am  614  INH614     -0.3470
     28  H1        34.5740   10.0370    5.6700 H     614  INH614      0.1630
     29  O5        34.7060   12.0920    3.3110 O.2   614  INH614     -0.2730
     30  C1        34.7490   12.0950    6.0670 C.3   614  INH614      0.1780
     31  C3        33.3810   12.7330    6.2670 C.3   614  INH614      0.0430
     32  C2        35.3040   11.6770    7.4650 C.2   614  INH614      0.1630
     33  O1        35.0750   10.6150    8.0400 O.2   614  INH614     -0.6480
     34  O2        36.0800   12.6230    7.9960 O.3   614  INH614     -0.7750
     35  H         37.0120   12.5530    7.9360 H     614  INH614      0.1670
@<TRIPOS>BOND
     1    24    23   ar
     2    24    25   ar
     3    23    22   ar
     4    25    20   ar
     5    22    21   ar
     6    20    21   ar
     7    20    17    1
     8    18    17   ar
     9    18    19   ar
    10     6     5    1
    11    17    16   ar
    12     5     7    1
    13     5     3    1
    14    12    11    1
    15    10     7    1
    16    11     3    1
    17    19    14   ar
    18     7     8    1
    19     7     9    1
    20    16    15   ar
    21     3     4    2
    22     3     2    1
    23    14    15   ar
    24    14    13    1
    25     1     2    1
    26     1    13    1
    27     1    26    1
    28    29    26    2
    29    26    27   am
    30    27    28    1
    31    27    30    1
    32    30    31    1
    33    30    32    1
    34    32    34    1
    35    32    33    2
    36    35    34    1
