@<TRIPOS>MOLECULE
./ligand/1uto_lig.pdb
 21 21 0 0 0
SMALL
GASTEIGER

@<TRIPOS>ATOM
      1  C1        45.2880   20.2790   50.4580 C.ar  227  INH227     -0.0423
      2  C2        46.2750   21.2320   50.6380 C.ar  227  INH227     -0.0584
      3  C3        46.1530   22.5390   50.1950 C.ar  227  INH227     -0.0615
      4  C4        45.0100   22.9460   49.5230 C.ar  227  INH227     -0.0617
      5  C5        44.0220   22.0000   49.3210 C.ar  227  INH227     -0.0615
      6  C6        44.1610   20.7100   49.7750 C.ar  227  INH227     -0.0584
      7  C7        45.4430   18.9650   50.9490 C.3   227  INH227      0.0126
      8  C8        45.5370   18.9420   52.5050 C.3   227  INH227     -0.0313
      9  N1        45.7910   17.5620   53.0200 N.4   227  INH227      0.2188
     10  H1        47.1860   20.9420   51.1490 H     227  INH227      0.0620
     11  H2        46.9540   23.2470   50.3740 H     227  INH227      0.0618
     12  H3        44.8960   23.9650   49.1700 H     227  INH227      0.0618
     13  H4        43.1180   22.2820   48.7930 H     227  INH227      0.0618
     14  H5        43.3600   20.0030   49.5920 H     227  INH227      0.0620
     15  H6        46.3630   18.5330   50.5290 H     227  INH227      0.0365
     16  H7        44.5780   18.3620   50.6350 H     227  INH227      0.0365
     17  H8        44.5900   19.3110   52.9250 H     227  INH227      0.0816
     18  H9        46.3600   19.5990   52.8230 H     227  INH227      0.0816
     19  H10       45.8460   17.5840   54.0260 H     227  INH227      0.1994
     20  H11       46.6600   17.2180   52.6440 H     227  INH227      0.1994
     21  H12       45.0380   16.9540   52.7380 H     227  INH227      0.1994
@<TRIPOS>BOND
     1     1     7    1
     2     1     6   ar
     3     1     2   ar
     4     2    10    1
     5     2     3   ar
     6     3    11    1
     7     3     4   ar
     8     4    12    1
     9     4     5   ar
    10     5    13    1
    11     5     6   ar
    12     6    14    1
    13     7    16    1
    14     7    15    1
    15     7     8    1
    16     8    18    1
    17     8    17    1
    18     8     9    1
    19     9    21    1
    20     9    20    1
    21     9    19    1
