@<TRIPOS>MOLECULE
/tmp/ewbell/vina_1uto_1uto_lig/vina/vina2.pdbqt
 12 12 0 0 0
SMALL
GASTEIGER

@<TRIPOS>ATOM
      1  C1        53.9500   22.4010   39.9920 C.ar  227  INH227     -0.0570
      2  C2        52.6560   22.2630   40.4600 C.ar  227  INH227      0.0070
      3  C3        52.0230   23.2280   41.2280 C.ar  227  INH227      0.0010
      4  C4        52.6910   24.3930   41.5760 C.ar  227  INH227      0.0000
      5  C5        53.9910   24.5370   41.1300 C.ar  227  INH227      0.0010
      6  C6        54.5970   23.5700   40.3630 C.ar  227  INH227      0.0070
      7  C7        54.5470   21.4050   39.1900 C.3   227  INH227      0.0650
      8  C8        56.0410   21.7310   38.8880 C.3   227  INH227      0.2340
      9  N1        56.9330   20.5750   39.2120 N.4   227  INH227     -0.0790
     10  H12       56.5850   20.1000   40.0300 H     227  INH227      0.2740
     11  H11       56.9470   19.9350   38.4330 H     227  INH227      0.2740
     12  H10       57.8660   20.9090   39.3880 H     227  INH227      0.2740
@<TRIPOS>BOND
     1    11     9    1
     2     8     7    1
     3     8     9    1
     4     7     1    1
     5     9    12    1
     6     9    10    1
     7     1     6   ar
     8     1     2   ar
     9     6     5   ar
    10     2     3   ar
    11     5     4   ar
    12     3     4   ar
