@<TRIPOS>MOLECULE
/tmp/ewbell/vina_1uto_1uto_lig/vina/vina4.pdbqt
 12 12 0 0 0
SMALL
GASTEIGER

@<TRIPOS>ATOM
      1  C1        45.4840   20.7590   50.2780 C.ar  227  INH227     -0.0570
      2  C2        44.5830   19.7100   50.2180 C.ar  227  INH227      0.0070
      3  C3        44.5550   18.6840   51.1500 C.ar  227  INH227      0.0010
      4  C4        45.4650   18.6650   52.1970 C.ar  227  INH227      0.0000
      5  C5        46.3820   19.6980   52.2600 C.ar  227  INH227      0.0010
      6  C6        46.3870   20.7100   51.3280 C.ar  227  INH227      0.0070
      7  C7        45.4600   21.7970   49.3220 C.3   227  INH227      0.0650
      8  C8        44.4290   22.9020   49.7030 C.3   227  INH227      0.2340
      9  N1        43.1070   22.6720   49.0430 N.4   227  INH227     -0.0790
     10  H12       42.4140   22.4600   49.7430 H     227  INH227      0.2740
     11  H11       42.8340   23.5020   48.5410 H     227  INH227      0.2740
     12  H10       43.1830   21.9010   48.3990 H     227  INH227      0.2740
@<TRIPOS>BOND
     1    12     9    1
     2    11     9    1
     3     9     8    1
     4     9    10    1
     5     7     8    1
     6     7     1    1
     7     2     1   ar
     8     2     3   ar
     9     1     6   ar
    10     3     4   ar
    11     6     5   ar
    12     4     5   ar
