@<TRIPOS>MOLECULE
/tmp/ewbell/vina_1uto_1uto_lig/vina/vina5.pdbqt
 12 12 0 0 0
SMALL
GASTEIGER

@<TRIPOS>ATOM
      1  C1        53.0290   23.0980   40.7350 C.ar  227  INH227     -0.0570
      2  C2        52.8110   21.7530   40.4920 C.ar  227  INH227      0.0070
      3  C3        53.7100   20.9550   39.8040 C.ar  227  INH227      0.0010
      4  C4        54.8870   21.4940   39.3060 C.ar  227  INH227      0.0000
      5  C5        55.1100   22.8410   39.5270 C.ar  227  INH227      0.0010
      6  C6        54.2080   23.6140   40.2190 C.ar  227  INH227      0.0070
      7  C7        52.0980   23.8690   41.4640 C.3   227  INH227      0.0650
      8  C8        50.8700   23.0160   41.9070 C.3   227  INH227      0.2340
      9  N1        49.5830   23.6290   41.4560 N.4   227  INH227     -0.0790
     10  H12       49.6670   24.6330   41.4670 H     227  INH227      0.2740
     11  H11       49.3750   23.3190   40.5200 H     227  INH227      0.2740
     12  H10       48.8420   23.3460   42.0750 H     227  INH227      0.2740
@<TRIPOS>BOND
     1     4     5   ar
     2     4     3   ar
     3     5     6   ar
     4     3     2   ar
     5     6     1   ar
     6     2     1   ar
     7    11     9    1
     8     1     7    1
     9     9    10    1
    10     9     8    1
    11     9    12    1
    12     7     8    1
