@<TRIPOS>MOLECULE
/tmp/ewbell/vina_1uto_1uto_lig/vina/vina1.pdbqt
 12 12 0 0 0
SMALL
GASTEIGER

@<TRIPOS>ATOM
      1  C1        53.9190   22.3710   39.9850 C.ar  227  INH227     -0.0570
      2  C2        54.5920   23.5280   40.3350 C.ar  227  INH227      0.0070
      3  C3        54.0290   24.5210   41.1210 C.ar  227  INH227      0.0010
      4  C4        52.7280   24.3920   41.5850 C.ar  227  INH227      0.0000
      5  C5        52.0380   23.2480   41.2290 C.ar  227  INH227      0.0010
      6  C6        52.6180   22.2730   40.4530 C.ar  227  INH227      0.0070
      7  C7        54.5410   21.3730   39.2040 C.3   227  INH227      0.0650
      8  C8        56.0320   21.7190   38.9130 C.3   227  INH227      0.2340
      9  N1        56.9340   20.5670   39.2190 N.4   227  INH227     -0.0790
     10  H12       56.4050   19.7100   39.1950 H     227  INH227      0.2740
     11  H11       57.6710   20.5260   38.5320 H     227  INH227      0.2740
     12  H10       57.3360   20.6890   40.1340 H     227  INH227      0.2740
@<TRIPOS>BOND
     1    11     9    1
     2     8     7    1
     3     8     9    1
     4    10     9    1
     5     7     1    1
     6     9    12    1
     7     1     2   ar
     8     1     6   ar
     9     2     3   ar
    10     6     5   ar
    11     3     4   ar
    12     5     4   ar
