@<TRIPOS>MOLECULE
/tmp/ewbell/vina_1uto_1uto_lig/vina/vina3.pdbqt
 12 12 0 0 0
SMALL
GASTEIGER

@<TRIPOS>ATOM
      1  C1        45.8440   20.2470   50.7200 C.ar  227  INH227     -0.0570
      2  C2        46.6450   21.0420   51.5210 C.ar  227  INH227      0.0070
      3  C3        46.9360   22.3640   51.2240 C.ar  227  INH227      0.0010
      4  C4        46.4320   22.9490   50.0720 C.ar  227  INH227      0.0000
      5  C5        45.6440   22.1610   49.2530 C.ar  227  INH227      0.0010
      6  C6        45.3620   20.8540   49.5700 C.ar  227  INH227      0.0070
      7  C7        45.5520   18.9120   51.0740 C.3   227  INH227      0.0650
      8  C8        45.5590   18.7160   52.6200 C.3   227  INH227      0.2340
      9  N1        45.7490   17.2800   52.9910 N.4   227  INH227     -0.0790
     10  H12       46.6450   16.9620   52.6570 H     227  INH227      0.2740
     11  H11       45.7110   17.1850   53.9940 H     227  INH227      0.2740
     12  H10       45.0180   16.7260   52.5750 H     227  INH227      0.2740
@<TRIPOS>BOND
     1     5     6   ar
     2     5     4   ar
     3     6     1   ar
     4     4     3   ar
     5     1     7    1
     6     1     2   ar
     7     7     8    1
     8     3     2   ar
     9    12     9    1
    10     8     9    1
    11    10     9    1
    12     9    11    1
