@<TRIPOS>MOLECULE
./ligand/2vhw_lig.pdb
 71 75 0 0 0
SMALL
GASTEIGER

@<TRIPOS>ATOM
      1  P1       -54.5640   60.1980    9.9640 P.3   2241  INH2241     0.2182
      2  O1       -55.4730   61.4170    9.9480 O.2   2241  INH2241    -0.5170
      3  O2       -55.1760   58.8800   10.3420 O.3   2241  INH2241    -0.4371
      4  O3       -53.3660   60.5240   10.9800 O.3   2241  INH2241    -0.3246
      5  C1       -52.5120   61.6460   10.8450 C.3   2241  INH2241     0.0836
      6  C2       -51.9920   61.9860   12.2310 C.3   2241  INH2241     0.1133
      7  O4       -51.0120   63.0040   12.0990 O.3   2241  INH2241    -0.3456
      8  C3       -53.0410   62.5190   13.2100 C.3   2241  INH2241     0.1135
      9  O5       -53.2270   61.6270   14.3230 O.3   2241  INH2241    -0.3864
     10  C4       -52.5010   63.8810   13.6170 C.3   2241  INH2241     0.1285
     11  O6       -52.7420   64.3090   14.9650 O.3   2241  INH2241    -0.3847
     12  C5       -51.0320   63.7000   13.3330 C.3   2241  INH2241     0.1665
     13  N1       -50.3430   64.9880   13.3230 N.ar  2241  INH2241    -0.2877
     14  C6       -50.7860   66.1530   12.8050 C.ar  2241  INH2241     0.0999
     15  N2       -49.8780   67.1310   13.0280 N.ar  2241  INH2241    -0.2346
     16  C7       -48.8430   66.6060   13.7230 C.ar  2241  INH2241     0.1287
     17  C8       -47.5540   67.0660   14.3100 C.3   2241  INH2241     0.2004
     18  N3       -47.1390   68.3360   14.1860 N.3   2241  INH2241    -0.2985
     19  N4       -46.7660   66.1720   14.9540 N.2   2241  INH2241    -0.2420
     20  C9       -47.1360   64.8890   15.0840 C.2   2241  INH2241     0.1049
     21  N5       -48.2870   64.4220   14.5990 N.pl3 2241  INH2241    -0.1840
     22  C10      -49.1620   65.1960   13.9200 C.ar  2241  INH2241     0.1528
     23  O7       -53.7840   60.1980    8.5570 O.3   2241  INH2241    -0.2703
     24  P2       -53.2050   58.9070    7.7700 P.3   2241  INH2241     0.2182
     25  O8       -54.3220   58.1890    7.1000 O.2   2241  INH2241    -0.5170
     26  O9       -52.3220   58.1690    8.7750 O.3   2241  INH2241    -0.4371
     27  O10      -52.2970   59.5990    6.6640 O.3   2241  INH2241    -0.3246
     28  C11      -51.0630   60.2800    6.8590 C.3   2241  INH2241     0.0836
     29  C12      -50.5710   60.7150    5.4790 C.3   2241  INH2241     0.1131
     30  O11      -50.2000   59.5850    4.6670 O.3   2241  INH2241    -0.3476
     31  C13      -51.6680   61.4380    4.6800 C.3   2241  INH2241     0.1133
     32  O12      -51.1230   62.6440    4.1410 O.3   2241  INH2241    -0.3864
     33  C14      -52.0320   60.4660    3.5780 C.3   2241  INH2241     0.1265
     34  O13      -52.6120   61.1080    2.4400 O.3   2241  INH2241    -0.3849
     35  C15      -50.6770   59.7990    3.3280 C.3   2241  INH2241     0.1574
     36  N6       -50.7200   58.5660    2.5220 N.pl3 2241  INH2241    -0.2846
     37  C16      -49.7390   58.4050    1.6230 C.2   2241  INH2241     0.0071
     38  C17      -49.6950   57.2860    0.8080 C.2   2241  INH2241     0.0318
     39  C18      -48.5540   57.1170   -0.1420 C.2   2241  INH2241     0.2390
     40  O14      -48.5990   56.2240   -0.9700 O.2   2241  INH2241    -0.2707
     41  N7       -47.4910   57.9140   -0.0240 N.am  2241  INH2241    -0.3256
     42  C19      -50.6770   56.3150    0.9280 C.3   2241  INH2241    -0.0019
     43  C20      -51.6770   56.4990    1.8690 C.2   2241  INH2241    -0.0654
     44  C21      -51.6720   57.6360    2.6600 C.2   2241  INH2241    -0.0049
     45  H1       -53.0720   62.4980   10.4340 H     2241  INH2241     0.0591
     46  H2       -51.6730   61.4020   10.1770 H     2241  INH2241     0.0591
     47  H3       -51.5390   61.0800   12.6610 H     2241  INH2241     0.0647
     48  H4       -54.0080   62.6400   12.7000 H     2241  INH2241     0.0647
     49  H5       -53.8820   61.9860   14.9100 H     2241  INH2241     0.2100
     50  H6       -52.9250   64.6500   12.9540 H     2241  INH2241     0.0665
     51  H7       -52.3590   65.1680   15.0970 H     2241  INH2241     0.2101
     52  H8       -50.5700   63.0750   14.1110 H     2241  INH2241     0.0866
     53  H9       -51.7340   66.2860   12.2850 H     2241  INH2241     0.1030
     54  H10      -46.2430   68.6280   14.6020 H     2241  INH2241     0.1209
     55  H11      -47.7160   69.0190   13.6750 H     2241  INH2241     0.1209
     56  H12      -46.4740   64.2060   15.6030 H     2241  INH2241     0.1015
     57  H13      -50.3300   59.6070    7.3270 H     2241  INH2241     0.0591
     58  H14      -51.2140   61.1600    7.5010 H     2241  INH2241     0.0591
     59  H15      -49.7050   61.3810    5.6110 H     2241  INH2241     0.0647
     60  H16      -52.5410   61.6650    5.3090 H     2241  INH2241     0.0647
     61  H17      -51.7920   63.1000    3.6450 H     2241  INH2241     0.2100
     62  H18      -52.7550   59.7220    3.9450 H     2241  INH2241     0.0663
     63  H19      -52.8210   60.4560    1.7810 H     2241  INH2241     0.2101
     64  H20      -50.0150   60.5050    2.8060 H     2241  INH2241     0.0840
     65  H21      -48.9680   59.1620    1.5320 H     2241  INH2241     0.0788
     66  H22      -46.7190   57.8140   -0.6520 H     2241  INH2241     0.1452
     67  H23      -47.4660   58.6110    0.6920 H     2241  INH2241     0.1452
     68  H24      -52.4590   55.7570    1.9860 H     2241  INH2241     0.0588
     69  H25      -52.4510   57.7740    3.4010 H     2241  INH2241     0.0781
     70  H26      -50.1710   55.3700    1.1730 H     2241  INH2241     0.0358
     71  H27      -51.1670   56.2250   -0.0530 H     2241  INH2241     0.0358
@<TRIPOS>BOND
     1    40    39    2
     2    66    41    1
     3    39    41   am
     4    39    38    1
     5    71    42    1
     6    41    67    1
     7    38    42    1
     8    38    37    2
     9    42    70    1
    10    42    43    1
    11    65    37    1
    12    37    36    1
    13    63    34    1
    14    43    68    1
    15    43    44    2
    16    34    33    1
    17    36    44    1
    18    36    35    1
    19    44    69    1
    20    64    35    1
    21    35    33    1
    22    35    30    1
    23    33    62    1
    24    33    31    1
    25    61    32    1
    26    32    31    1
    27    30    29    1
    28    31    60    1
    29    31    29    1
    30    29    59    1
    31    29    28    1
    32    27    28    1
    33    27    24    1
    34    28    57    1
    35    28    58    1
    36    25    24    2
    37    24    23    1
    38    24    26    1
    39    23     1    1
    40     2     1    2
    41     1     3    1
    42     1     4    1
    43    46     5    1
    44    45     5    1
    45     5     4    1
    46     5     6    1
    47     7     6    1
    48     7    12    1
    49     6    47    1
    50     6     8    1
    51    53    14    1
    52    48     8    1
    53    14    15   ar
    54    14    13   ar
    55    50    10    1
    56    15    16   ar
    57     8    10    1
    58     8     9    1
    59    13    12    1
    60    13    22   ar
    61    12    10    1
    62    12    52    1
    63    10    11    1
    64    55    18    1
    65    16    22   ar
    66    16    17    1
    67    22    21    1
    68    18    17    1
    69    18    54    1
    70    17    19    1
    71     9    49    1
    72    21    20    1
    73    19    20    2
    74    11    51    1
    75    20    56    1
