@<TRIPOS>MOLECULE
/tmp/ewbell/vina_2vhw_2vhw_lig/vina/vina3.pdbqt
 57 61 0 0 0
SMALL
GASTEIGER

@<TRIPOS>ATOM
      1  P1       -60.6680   53.0290   14.9580 P.3   2241  INH2241     0.4010
      2  O1       -60.5430   51.8960   13.9510 O.2   2241  INH2241    -0.6310
      3  O7       -59.3940   52.9090   15.9330 O.3   2241  INH2241    -0.1950
      4  P2       -59.4080   52.9200   17.5520 P.3   2241  INH2241     0.4010
      5  O8       -60.6510   52.2710   18.0440 O.2   2241  INH2241    -0.6310
      6  O10      -58.1680   51.9800   17.8790 O.3   2241  INH2241    -0.2940
      7  C11      -57.8130   51.4220   19.1380 C.3   2241  INH2241     0.2150
      8  C12      -57.3110   50.0040   18.8720 C.3   2241  INH2241     0.1800
      9  O11      -56.4100   49.5570   19.9040 O.3   2241  INH2241    -0.3530
     10  C15      -56.7120   48.1870   20.2230 C.3   2241  INH2241     0.2590
     11  C14      -58.2400   48.1720   20.1350 C.3   2241  INH2241     0.1980
     12  C13      -58.4580   48.9790   18.8740 C.3   2241  INH2241     0.1820
     13  N6       -56.1500   47.7540   21.5140 N.pl3 2241  INH2241    -0.3370
     14  C16      -55.5160   46.5720   21.5240 C.2   2241  INH2241     0.1060
     15  C17      -54.9630   46.0700   22.6890 C.2   2241  INH2241     0.0280
     16  C19      -55.0600   46.8020   23.8630 C.3   2241  INH2241     0.0740
     17  C20      -55.7130   48.0240   23.8270 C.2   2241  INH2241    -0.0050
     18  C21      -56.2460   48.4810   22.6330 C.2   2241  INH2241     0.0890
     19  C18      -54.2170   44.7760   22.6460 C.2   2241  INH2241     0.2460
     20  O14      -54.4300   43.9400   23.5080 O.2   2241  INH2241    -0.2680
     21  N7       -53.2970   44.5900   21.6980 N.am  2241  INH2241    -0.3660
     22  H22      -52.7890   43.7290   21.6570 H     2241  INH2241     0.1590
     23  H23      -53.1150   45.3110   21.0310 H     2241  INH2241     0.1590
     24  O13      -58.8320   46.8720   20.0740 O.3   2241  INH2241    -0.3880
     25  H19      -58.3630   46.3400   19.4420 H     2241  INH2241     0.2100
     26  O12      -58.3380   48.1570   17.7120 O.3   2241  INH2241    -0.3900
     27  H17      -58.0480   47.2890   17.9660 H     2241  INH2241     0.2100
     28  O9       -59.0880   54.3570   17.9610 O.3   2241  INH2241    -0.3070
     29  H        -59.6180   54.9700   17.4280 H     2241  INH2241     0.2220
     30  O2       -61.9840   53.1900   15.6640 O.3   2241  INH2241    -0.3070
     31  H        -62.7020   53.2020   15.0100 H     2241  INH2241     0.2220
     32  O3       -60.3290   54.3870   14.1750 O.3   2241  INH2241    -0.2940
     33  C1       -59.1520   55.1430   14.3960 C.3   2241  INH2241     0.2150
     34  C2       -58.2400   54.9140   13.2040 C.3   2241  INH2241     0.1800
     35  O4       -57.4260   53.7840   13.4780 O.3   2241  INH2241    -0.3530
     36  C5       -57.0970   53.2460   12.2100 C.3   2241  INH2241     0.2620
     37  C4       -58.4070   53.2660   11.4630 C.3   2241  INH2241     0.1980
     38  C3       -58.9540   54.6210   11.8810 C.3   2241  INH2241     0.1820
     39  N1       -56.5370   51.8970   12.2400 N.pl3 2241  INH2241    -0.2970
     40  C6       -55.6390   51.3610   11.3880 C.3   2241  INH2241     0.1870
     41  N2       -55.3380   50.0980   11.7710 N.pl3 2241  INH2241    -0.3490
     42  C7       -56.0250   49.8170   12.9020 C.2   2241  INH2241     0.0970
     43  H2       -54.7000   49.4650   11.2880 H     2241  INH2241     0.1660
     44  C10      -56.8070   51.0110   13.2080 C.2   2241  INH2241     0.1380
     45  C8       -56.1730   48.6840   13.8570 C.3   2241  INH2241     0.2300
     46  N5       -57.5940   51.0060   14.3060 N.pl3 2241  INH2241    -0.3370
     47  C9       -57.7000   49.9500   15.1130 C.3   2241  INH2241     0.1790
     48  H        -58.1130   51.8160   14.5180 H     2241  INH2241     0.1680
     49  N4       -57.0150   48.8150   14.9100 N.3   2241  INH2241    -0.3600
     50  H4       -57.1300   48.0370   15.5600 H     2241  INH2241     0.1620
     51  N3       -55.5200   47.5250   13.6800 N.3   2241  INH2241    -0.4060
     52  H11      -54.8980   47.4040   12.8670 H     2241  INH2241     0.1520
     53  H10      -55.6390   46.7580   14.3560 H     2241  INH2241     0.1520
     54  O6       -58.2320   53.0300   10.0590 O.3   2241  INH2241    -0.3880
     55  H7       -57.9290   52.1400    9.9230 H     2241  INH2241     0.2100
     56  O5       -58.7120   55.6540   10.9100 O.3   2241  INH2241    -0.3900
     57  H5       -57.8490   55.5380   10.5330 H     2241  INH2241     0.2100
@<TRIPOS>BOND
     1    55    54    1
     2    54    37    1
     3    57    56    1
     4    56    38    1
     5    43    41    1
     6    40    41    1
     7    40    39    1
     8    37    38    1
     9    37    36    1
    10    41    42    1
    11    38    34    1
    12    36    39    1
    13    36    35    1
    14    39    44    1
    15    52    51    1
    16    42    44    2
    17    42    45    1
    18    34    35    1
    19    34    33    1
    20    44    46    1
    21    51    45    1
    22    51    53    1
    23    45    49    1
    24     2     1    2
    25    32    33    1
    26    32     1    1
    27    46    48    1
    28    46    47    1
    29    49    47    1
    30    49    50    1
    31     1    30    1
    32     1     3    1
    33    31    30    1
    34     3     4    1
    35    29    28    1
    36     4     6    1
    37     4    28    1
    38     4     5    2
    39    26    27    1
    40    26    12    1
    41     6     7    1
    42     8    12    1
    43     8     7    1
    44     8     9    1
    45    12    11    1
    46    25    24    1
    47     9    10    1
    48    24    11    1
    49    11    10    1
    50    10    13    1
    51    23    21    1
    52    13    14    1
    53    13    18    1
    54    14    15    2
    55    22    21    1
    56    21    19   am
    57    18    17    2
    58    19    15    1
    59    19    20    2
    60    15    16    1
    61    17    16    1
