@<TRIPOS>MOLECULE
/tmp/ewbell/vina_2vhw_2vhw_lig/vina/vina1.pdbqt
 57 61 0 0 0
SMALL
GASTEIGER

@<TRIPOS>ATOM
      1  P1       -53.9610   59.1840    8.3970 P.3   2241  INH2241     0.4010
      2  O1       -53.0390   58.6430    9.4800 O.2   2241  INH2241    -0.6310
      3  O7       -54.9190   60.2580    9.1160 O.3   2241  INH2241    -0.1950
      4  P2       -55.1310   60.4550   10.7090 P.3   2241  INH2241     0.4010
      5  O8       -55.4320   59.1410   11.3370 O.2   2241  INH2241    -0.6310
      6  O10      -53.6810   60.9250   11.1600 O.3   2241  INH2241    -0.2940
      7  C11      -53.1880   62.2560   11.2390 C.3   2241  INH2241     0.2150
      8  C12      -52.4960   62.3950   12.5950 C.3   2241  INH2241     0.1800
      9  O11      -51.3600   63.2780   12.5230 O.3   2241  INH2241    -0.3530
     10  C15      -51.3500   64.1170   13.6900 C.3   2241  INH2241     0.2590
     11  C14      -52.8410   64.3990   13.8910 C.3   2241  INH2241     0.1980
     12  C13      -53.4210   63.0220   13.6510 C.3   2241  INH2241     0.1820
     13  N6       -50.4970   65.3110   13.5410 N.pl3 2241  INH2241    -0.3370
     14  C16      -49.2730   65.2420   14.0830 C.2   2241  INH2241     0.1060
     15  C17      -48.3990   66.3130   14.0080 C.2   2241  INH2241     0.0280
     16  C19      -48.7940   67.4720   13.3580 C.3   2241  INH2241     0.0740
     17  C20      -50.0610   67.5180   12.7980 C.2   2241  INH2241    -0.0050
     18  C21      -50.8940   66.4160   12.9010 C.2   2241  INH2241     0.0890
     19  C18      -47.0240   66.1770   14.5760 C.2   2241  INH2241     0.2460
     20  O14      -46.6290   65.0750   14.9160 O.2   2241  INH2241    -0.2680
     21  N7       -46.2830   67.2730   14.7450 N.am  2241  INH2241    -0.3660
     22  H22      -45.3600   67.1990   15.1240 H     2241  INH2241     0.1590
     23  H23      -46.6500   68.1680   14.4940 H     2241  INH2241     0.1590
     24  O13      -53.1910   64.9350   15.1690 O.3   2241  INH2241    -0.3880
     25  H19      -52.4170   65.2960   15.5840 H     2241  INH2241     0.2100
     26  O12      -53.3660   62.2280   14.8370 O.3   2241  INH2241    -0.3900
     27  H17      -52.5860   62.4500   15.3310 H     2241  INH2241     0.2100
     28  O9       -56.1180   61.6110   10.8580 O.3   2241  INH2241    -0.3070
     29  H        -55.8690   62.1530   11.6230 H     2241  INH2241     0.2220
     30  O2       -54.6750   58.1880    7.5310 O.3   2241  INH2241    -0.3070
     31  H        -54.2780   58.1850    6.6450 H     2241  INH2241     0.2220
     32  O3       -53.0720   60.1400    7.4650 O.3   2241  INH2241    -0.2940
     33  C1       -53.1830   60.1750    6.0530 C.3   2241  INH2241     0.2150
     34  C2       -51.9300   59.5290    5.4870 C.3   2241  INH2241     0.1800
     35  O4       -52.3050   58.7420    4.3680 O.3   2241  INH2241    -0.3530
     36  C5       -51.1540   58.6990    3.5430 C.3   2241  INH2241     0.2620
     37  C4       -50.6690   60.1260    3.5320 C.3   2241  INH2241     0.1980
     38  C3       -50.8580   60.5030    4.9920 C.3   2241  INH2241     0.1820
     39  N1       -51.3900   58.2200    2.1820 N.pl3 2241  INH2241    -0.2970
     40  C6       -52.5580   58.2070    1.5070 C.3   2241  INH2241     0.1870
     41  N2       -52.3630   57.7240    0.2580 N.pl3 2241  INH2241    -0.3490
     42  C7       -51.0480   57.4450    0.1070 C.2   2241  INH2241     0.0970
     43  H2       -53.0850   57.5930   -0.4500 H     2241  INH2241     0.1660
     44  C10      -50.4130   57.7830    1.3770 C.2   2241  INH2241     0.1380
     45  C8       -50.1380   56.9270   -0.9530 C.3   2241  INH2241     0.2300
     46  N5       -49.0800   57.6030    1.5040 N.pl3 2241  INH2241    -0.3370
     47  C9       -48.3220   57.1150    0.5220 C.3   2241  INH2241     0.1790
     48  H        -48.6520   57.8410    2.3570 H     2241  INH2241     0.1680
     49  N4       -48.8200   56.7830   -0.6780 N.3   2241  INH2241    -0.3600
     50  H4       -48.1950   56.4170   -1.3960 H     2241  INH2241     0.1620
     51  N3       -50.6000   56.5680   -2.1610 N.3   2241  INH2241    -0.4060
     52  H11      -51.6050   56.6460   -2.3720 H     2241  INH2241     0.1520
     53  H10      -49.9490   56.2130   -2.8760 H     2241  INH2241     0.1520
     54  O6       -49.3470   60.2420    2.9870 O.3   2241  INH2241    -0.3880
     55  H7       -49.1670   61.1520    2.7840 H     2241  INH2241     0.2100
     56  O5       -49.6510   60.3990    5.7660 O.3   2241  INH2241    -0.3900
     57  H5       -48.9540   60.0550    5.2200 H     2241  INH2241     0.2100
@<TRIPOS>BOND
     1    53    51    1
     2    52    51    1
     3    51    45    1
     4    50    49    1
     5    45    49    1
     6    45    42    1
     7    49    47    1
     8    43    41    1
     9    42    41    1
    10    42    44    2
    11    41    40    1
    12    47    46    1
    13    44    46    1
    14    44    39    1
    15    46    48    1
    16    40    39    1
    17    39    36    1
    18    55    54    1
    19    54    37    1
    20    37    36    1
    21    37    38    1
    22    36    35    1
    23    35    34    1
    24    38    34    1
    25    38    56    1
    26    57    56    1
    27    34    33    1
    28    33    32    1
    29    31    30    1
    30    32     1    1
    31    30     1    1
    32     1     3    1
    33     1     2    2
    34     3     4    1
    35     4    28    1
    36     4     6    1
    37     4     5    2
    38    28    29    1
    39     6     7    1
    40     7     8    1
    41     9     8    1
    42     9    10    1
    43     8    12    1
    44    17    18    2
    45    17    16    1
    46    18    13    1
    47    16    15    1
    48    13    10    1
    49    13    14    1
    50    12    11    1
    51    12    26    1
    52    10    11    1
    53    11    24    1
    54    15    14    2
    55    15    19    1
    56    23    21    1
    57    19    21   am
    58    19    20    2
    59    21    22    1
    60    26    27    1
    61    24    25    1
