@<TRIPOS>MOLECULE
/tmp/ewbell/vina_2vhw_2vhw_lig/vina/vina2.pdbqt
 57 61 0 0 0
SMALL
GASTEIGER

@<TRIPOS>ATOM
      1  P1       -58.7160   57.4100   11.2760 P.3   2241  INH2241     0.4010
      2  O1       -57.3880   57.9710   11.7620 O.2   2241  INH2241    -0.6310
      3  O7       -58.5020   57.0190    9.7300 O.3   2241  INH2241    -0.1950
      4  P2       -59.2370   57.6870    8.4510 P.3   2241  INH2241     0.4010
      5  O8       -59.6140   59.0890    8.7700 O.2   2241  INH2241    -0.6310
      6  O10      -58.0560   57.6980    7.3860 O.3   2241  INH2241    -0.2940
      7  C11      -57.1320   58.7470    7.1290 C.3   2241  INH2241     0.2150
      8  C12      -55.8420   58.3970    7.8680 C.3   2241  INH2241     0.1800
      9  O11      -54.6880   58.5340    7.0170 O.3   2241  INH2241    -0.3530
     10  C15      -53.6280   59.1510    7.7670 C.3   2241  INH2241     0.2590
     11  C14      -54.3930   60.1750    8.6110 C.3   2241  INH2241     0.1980
     12  C13      -55.5810   59.3460    9.0490 C.3   2241  INH2241     0.1820
     13  N6       -52.5600   59.7070    6.9160 N.pl3 2241  INH2241    -0.3370
     14  C16      -52.9470   60.2730    5.7650 C.2   2241  INH2241     0.1060
     15  C17      -52.0210   60.8140    4.8900 C.2   2241  INH2241     0.0280
     16  C19      -50.6730   60.7750    5.2120 C.3   2241  INH2241     0.0740
     17  C20      -50.2960   60.1910    6.4110 C.2   2241  INH2241    -0.0050
     18  C21      -51.2660   59.6670    7.2510 C.2   2241  INH2241     0.0890
     19  C18      -52.4970   61.4860    3.6430 C.2   2241  INH2241     0.2460
     20  O14      -52.3460   62.6900    3.5240 O.2   2241  INH2241    -0.2680
     21  N7       -53.1220   60.7600    2.7150 N.am  2241  INH2241    -0.3660
     22  H22      -53.4470   61.1960    1.8750 H     2241  INH2241     0.1590
     23  H23      -53.2680   59.7830    2.8610 H     2241  INH2241     0.1590
     24  O13      -53.6610   60.7240    9.7090 O.3   2241  INH2241    -0.3880
     25  H19      -54.2680   61.0460   10.3650 H     2241  INH2241     0.2100
     26  O12      -55.2640   58.5650   10.2030 O.3   2241  INH2241    -0.3900
     27  H17      -55.8120   57.7900   10.2220 H     2241  INH2241     0.2100
     28  O9       -60.3120   56.6900    8.0210 O.3   2241  INH2241    -0.3070
     29  H        -61.1240   56.8520    8.5260 H     2241  INH2241     0.2220
     30  O2       -59.9530   58.2130   11.5540 O.3   2241  INH2241    -0.3070
     31  H        -60.0440   58.3460   12.5120 H     2241  INH2241     0.2220
     32  O3       -58.8790   55.9590   11.9400 O.3   2241  INH2241    -0.2940
     33  C1       -59.6420   55.7160   13.1090 C.3   2241  INH2241     0.2150
     34  C2       -58.8740   54.7090   13.9470 C.3   2241  INH2241     0.1800
     35  O4       -58.5980   53.5770   13.1370 O.3   2241  INH2241    -0.3530
     36  C5       -57.4220   53.0070   13.6840 C.3   2241  INH2241     0.2620
     37  C4       -56.5270   54.1960   13.9240 C.3   2241  INH2241     0.1980
     38  C3       -57.5250   55.1970   14.4820 C.3   2241  INH2241     0.1820
     39  N1       -56.7610   52.0230   12.8300 N.pl3 2241  INH2241    -0.2970
     40  C6       -56.2970   52.2030   11.5760 C.3   2241  INH2241     0.1870
     41  N2       -55.7130   51.0650   11.1340 N.pl3 2241  INH2241    -0.3490
     42  C7       -55.7710   50.1410   12.1190 C.2   2241  INH2241     0.0970
     43  H2       -55.2980   50.9280   10.2110 H     2241  INH2241     0.1660
     44  C10      -56.4560   50.7830   13.2370 C.2   2241  INH2241     0.1380
     45  C8       -55.3370   48.7350   12.3490 C.3   2241  INH2241     0.2300
     46  N5       -56.6490   50.0770   14.3720 N.pl3 2241  INH2241    -0.3370
     47  C9       -56.2540   48.8110   14.5090 C.3   2241  INH2241     0.1790
     48  H        -57.1020   50.5140   15.1280 H     2241  INH2241     0.1680
     49  N4       -55.6140   48.1450   13.5360 N.3   2241  INH2241    -0.3600
     50  H4       -55.3300   47.1770   13.6940 H     2241  INH2241     0.1620
     51  N3       -54.7100   48.0290   11.3960 N.3   2241  INH2241    -0.4060
     52  H11      -54.5180   48.4570   10.4790 H     2241  INH2241     0.1520
     53  H10      -54.4190   47.0580   11.5810 H     2241  INH2241     0.1520
     54  O6       -55.3970   53.8640   14.7440 O.3   2241  INH2241    -0.3880
     55  H7       -54.6830   54.4610   14.5550 H     2241  INH2241     0.2100
     56  O5       -57.5190   55.2640   15.9190 O.3   2241  INH2241    -0.3900
     57  H5       -57.6770   56.1590   16.1950 H     2241  INH2241     0.2100
@<TRIPOS>BOND
     1    22    21    1
     2    21    23    1
     3    21    19   am
     4    20    19    2
     5    19    15    1
     6    15    16    1
     7    15    14    2
     8    16    17    1
     9    14    13    1
    10    17    18    2
    11    13    18    1
    12    13    10    1
    13     9    10    1
    14     9     8    1
    15     7     6    1
    16     7     8    1
    17     6     4    1
    18    10    11    1
    19     8    12    1
    20    28     4    1
    21    28    29    1
    22     4     5    2
    23     4     3    1
    24    11    12    1
    25    11    24    1
    26    12    26    1
    27    24    25    1
    28     3     1    1
    29    26    27    1
    30    43    41    1
    31    52    51    1
    32    41    40    1
    33    41    42    1
    34     1    30    1
    35     1     2    2
    36     1    32    1
    37    51    53    1
    38    51    45    1
    39    30    31    1
    40    40    39    1
    41    32    33    1
    42    42    45    1
    43    42    44    2
    44    45    49    1
    45    39    44    1
    46    39    36    1
    47    33    34    1
    48    35    36    1
    49    35    34    1
    50    44    46    1
    51    49    50    1
    52    49    47    1
    53    36    37    1
    54    37    38    1
    55    37    54    1
    56    34    38    1
    57    46    47    1
    58    46    48    1
    59    38    56    1
    60    55    54    1
    61    56    57    1
