@<TRIPOS>MOLECULE
/tmp/ewbell/vina_2vhw_2vhw_lig/vina/vina4.pdbqt
 57 61 0 0 0
SMALL
GASTEIGER

@<TRIPOS>ATOM
      1  P1       -60.5760   53.7960   10.5560 P.3   2241  INH2241     0.4010
      2  O1       -61.8120   53.3480    9.7900 O.2   2241  INH2241    -0.6310
      3  O7       -60.5860   55.4040   10.5260 O.3   2241  INH2241    -0.1950
      4  P2       -59.9090   56.3570    9.4050 P.3   2241  INH2241     0.4010
      5  O8       -60.8160   56.4690    8.2320 O.2   2241  INH2241    -0.6310
      6  O10      -59.8720   57.7530   10.1660 O.3   2241  INH2241    -0.2940
      7  C11      -59.8850   57.9730   11.5710 C.3   2241  INH2241     0.2150
      8  C12      -58.5570   58.6370   11.9310 C.3   2241  INH2241     0.1800
      9  O11      -57.5150   58.2790   11.0020 O.3   2241  INH2241    -0.3530
     10  C15      -56.7350   59.4500   10.7050 C.3   2241  INH2241     0.2590
     11  C14      -57.8090   60.5400   10.6530 C.3   2241  INH2241     0.1980
     12  C13      -58.6430   60.1710   11.8610 C.3   2241  INH2241     0.1820
     13  N6       -55.9190   59.3100    9.4860 N.pl3 2241  INH2241    -0.3370
     14  C16      -54.5900   59.3880    9.6450 C.2   2241  INH2241     0.1060
     15  C17      -53.7350   59.2810    8.5610 C.2   2241  INH2241     0.0280
     16  C19      -54.2610   59.0840    7.2930 C.3   2241  INH2241     0.0740
     17  C20      -55.6370   58.9990    7.1540 C.2   2241  INH2241    -0.0050
     18  C21      -56.4460   59.1110    8.2730 C.2   2241  INH2241     0.0890
     19  C18      -52.2590   59.3180    8.7870 C.2   2241  INH2241     0.2460
     20  O14      -51.7450   58.4640    9.4890 O.2   2241  INH2241    -0.2680
     21  N7       -51.5480   60.3150    8.2580 N.am  2241  INH2241    -0.3660
     22  H22      -50.5580   60.3530    8.4000 H     2241  INH2241     0.1590
     23  H23      -52.0040   61.0230    7.7200 H     2241  INH2241     0.1590
     24  O13      -57.3160   61.8800   10.7060 O.3   2241  INH2241    -0.3880
     25  H19      -57.7420   62.3470   11.4140 H     2241  INH2241     0.2100
     26  O12      -58.0840   60.7160   13.0570 O.3   2241  INH2241    -0.3900
     27  H17      -57.6720   61.5490   12.8630 H     2241  INH2241     0.2100
     28  O9       -58.4860   55.8330    9.2180 O.3   2241  INH2241    -0.3070
     29  H        -57.8970   56.5690    8.9910 H     2241  INH2241     0.2220
     30  O2       -59.2630   53.1700   10.1840 O.3   2241  INH2241    -0.3070
     31  H        -58.8730   52.7470   10.9660 H     2241  INH2241     0.2220
     32  O3       -60.8630   53.5160   12.1090 O.3   2241  INH2241    -0.2940
     33  C1       -60.6990   54.4920   13.1220 C.3   2241  INH2241     0.2150
     34  C2       -59.3310   54.2690   13.7440 C.3   2241  INH2241     0.1800
     35  O4       -58.8870   52.9710   13.3840 O.3   2241  INH2241    -0.3530
     36  C5       -57.4720   53.0420   13.4110 C.3   2241  INH2241     0.2620
     37  C4       -57.1660   54.3380   12.7050 C.3   2241  INH2241     0.1980
     38  C3       -58.2400   55.2420   13.2880 C.3   2241  INH2241     0.1820
     39  N1       -56.7880   51.9240   12.7660 N.pl3 2241  INH2241    -0.2970
     40  C6       -56.1980   51.9130   11.5520 C.3   2241  INH2241     0.1870
     41  N2       -55.6370   50.7020   11.3250 N.pl3 2241  INH2241    -0.3490
     42  C7       -55.8380   49.9240   12.4130 C.2   2241  INH2241     0.0970
     43  H2       -55.1450   50.4230   10.4750 H     2241  INH2241     0.1660
     44  C10      -56.5900   50.7410   13.3600 C.2   2241  INH2241     0.1380
     45  C8       -55.5050   48.5460   12.8680 C.3   2241  INH2241     0.2300
     46  N5       -56.9280   50.2030   14.5530 N.pl3 2241  INH2241    -0.3370
     47  C9       -56.6170   48.9530   14.8950 C.3   2241  INH2241     0.1790
     48  H        -57.4260   50.7580   15.1960 H     2241  INH2241     0.1680
     49  N4       -55.9240   48.1350   14.0890 N.3   2241  INH2241    -0.3600
     50  H4       -55.7090   47.1880   14.4000 H     2241  INH2241     0.1620
     51  N3       -54.8290   47.6910   12.0840 N.3   2241  INH2241    -0.4060
     52  H11      -54.5290   47.9830   11.1430 H     2241  INH2241     0.1520
     53  H10      -54.6100   46.7440   12.4240 H     2241  INH2241     0.1520
     54  O6       -55.8000   54.7390   12.8810 O.3   2241  INH2241    -0.3880
     55  H7       -55.7060   55.6540   12.6430 H     2241  INH2241     0.2100
     56  O5       -57.7680   56.0550   14.3760 O.3   2241  INH2241    -0.3900
     57  H5       -58.0530   56.9520   14.2480 H     2241  INH2241     0.2100
@<TRIPOS>BOND
     1    17    16    1
     2    17    18    2
     3    16    15    1
     4    23    21    1
     5     5     4    2
     6    21    22    1
     7    21    19   am
     8    18    13    1
     9    15    19    1
    10    15    14    2
    11    19    20    2
    12    29    28    1
    13    28     4    1
    14     4     6    1
    15     4     3    1
    16    13    14    1
    17    13    10    1
    18     2     1    2
    19     6     7    1
    20    30     1    1
    21    30    31    1
    22    43    41    1
    23     3     1    1
    24     1    32    1
    25    11    10    1
    26    11    24    1
    27    11    12    1
    28    10     9    1
    29    24    25    1
    30     9     8    1
    31    52    51    1
    32    41    40    1
    33    41    42    1
    34    40    39    1
    35     7     8    1
    36    12     8    1
    37    12    26    1
    38    51    53    1
    39    51    45    1
    40    32    33    1
    41    42    45    1
    42    42    44    2
    43    55    54    1
    44    37    54    1
    45    37    38    1
    46    37    36    1
    47    39    44    1
    48    39    36    1
    49    27    26    1
    50    45    49    1
    51    33    34    1
    52    38    34    1
    53    38    56    1
    54    44    46    1
    55    35    36    1
    56    35    34    1
    57    49    50    1
    58    49    47    1
    59    57    56    1
    60    46    47    1
    61    46    48    1
