@<TRIPOS>MOLECULE
/tmp/ewbell/vina_2vhw_2vhw_lig/vina/vina5.pdbqt
 57 61 0 0 0
SMALL
GASTEIGER

@<TRIPOS>ATOM
      1  P1       -57.9530   59.4780   10.4400 P.3   2241  INH2241     0.4010
      2  O1       -59.2640   60.2490   10.4130 O.2   2241  INH2241    -0.6310
      3  O7       -58.2920   57.9930    9.9210 O.3   2241  INH2241    -0.1950
      4  P2       -59.1400   56.8610   10.7080 P.3   2241  INH2241     0.4010
      5  O8       -59.4610   55.7440    9.7810 O.2   2241  INH2241    -0.6310
      6  O10      -58.0730   56.3590   11.7740 O.3   2241  INH2241    -0.2940
      7  C11      -58.2600   55.3880   12.7950 C.3   2241  INH2241     0.2150
      8  C12      -58.3120   54.0230   12.1090 C.3   2241  INH2241     0.1800
      9  O11      -57.3570   53.1070   12.6770 O.3   2241  INH2241    -0.3530
     10  C15      -57.9740   51.8140   12.8060 C.3   2241  INH2241     0.2590
     11  C14      -59.3980   52.1850   13.2290 C.3   2241  INH2241     0.1980
     12  C13      -59.6770   53.3400   12.2920 C.3   2241  INH2241     0.1820
     13  N6       -57.2550   50.9170   13.7290 N.pl3 2241  INH2241    -0.3370
     14  C16      -56.6750   49.8390   13.1830 C.2   2241  INH2241     0.1060
     15  C17      -55.9860   48.9280   13.9650 C.2   2241  INH2241     0.0280
     16  C19      -55.8890   49.1360   15.3320 C.3   2241  INH2241     0.0740
     17  C20      -56.4910   50.2610   15.8740 C.2   2241  INH2241    -0.0050
     18  C21      -57.1660   51.1420   15.0440 C.2   2241  INH2241     0.0890
     19  C18      -55.3060   47.7690   13.3110 C.2   2241  INH2241     0.2460
     20  O14      -54.9350   46.8340   14.0000 O.2   2241  INH2241    -0.2680
     21  N7       -55.0730   47.8110   11.9990 N.am  2241  INH2241    -0.3660
     22  H22      -54.6190   47.0430   11.5470 H     2241  INH2241     0.1590
     23  H23      -55.3520   48.6100   11.4680 H     2241  INH2241     0.1590
     24  O13      -60.3580   51.1320   13.1160 O.3   2241  INH2241    -0.3880
     25  H19      -60.6350   50.8610   13.9830 H     2241  INH2241     0.2100
     26  O12      -60.1290   52.8710   11.0200 O.3   2241  INH2241    -0.3900
     27  H17      -59.3820   52.6100   10.4950 H     2241  INH2241     0.2100
     28  O9       -60.2690   57.6050   11.4190 O.3   2241  INH2241    -0.3070
     29  H        -60.9370   57.8770   10.7690 H     2241  INH2241     0.2220
     30  O2       -57.1430   59.5300   11.7030 O.3   2241  INH2241    -0.3070
     31  H        -57.1110   58.6470   12.1040 H     2241  INH2241     0.2220
     32  O3       -57.0610   60.0320    9.2270 O.3   2241  INH2241    -0.2940
     33  C1       -56.3470   59.1940    8.3370 C.3   2241  INH2241     0.2150
     34  C2       -54.9470   59.0270    8.9020 C.3   2241  INH2241     0.1800
     35  O4       -54.0660   58.7410    7.8270 O.3   2241  INH2241    -0.3530
     36  C5       -52.7990   59.2110    8.2510 C.3   2241  INH2241     0.2620
     37  C4       -53.0990   60.5620    8.8480 C.3   2241  INH2241     0.1980
     38  C3       -54.3780   60.2570    9.6130 C.3   2241  INH2241     0.1820
     39  N1       -51.7980   59.3230    7.1910 N.pl3 2241  INH2241    -0.2970
     40  C6       -50.4680   59.1250    7.2930 C.3   2241  INH2241     0.1870
     41  N2       -49.8840   59.2840    6.0830 N.pl3 2241  INH2241    -0.3490
     42  C7       -50.8480   59.5620    5.1750 C.2   2241  INH2241     0.0970
     43  H2       -48.8860   59.2080    5.8880 H     2241  INH2241     0.1660
     44  C10      -52.1070   59.5770    5.9130 C.2   2241  INH2241     0.1380
     45  C8       -50.9510   59.8280    3.7130 C.3   2241  INH2241     0.2300
     46  N5       -53.2500   59.8300    5.2390 N.pl3 2241  INH2241    -0.3370
     47  C9       -53.2750   60.0810    3.9300 C.3   2241  INH2241     0.1790
     48  H        -54.1000   59.8290    5.7350 H     2241  INH2241     0.1680
     49  N4       -52.1670   60.0820    3.1740 N.3   2241  INH2241    -0.3600
     50  H4       -52.2420   60.2780    2.1750 H     2241  INH2241     0.1620
     51  N3       -49.8650   59.8560    2.9250 N.3   2241  INH2241    -0.4060
     52  H11      -48.9320   59.6920    3.3290 H     2241  INH2241     0.1520
     53  H10      -49.9650   60.0410    1.9170 H     2241  INH2241     0.1520
     54  O6       -51.9910   61.0790    9.5970 O.3   2241  INH2241    -0.3880
     55  H7       -51.7360   61.9220    9.2430 H     2241  INH2241     0.2100
     56  O5       -54.1560   60.0050   11.0110 O.3   2241  INH2241    -0.3900
     57  H5       -54.5690   60.6890   11.5250 H     2241  INH2241     0.2100
@<TRIPOS>BOND
     1    53    51    1
     2    50    49    1
     3    51    52    1
     4    51    45    1
     5    49    45    1
     6    49    47    1
     7    45    42    1
     8    47    46    1
     9    42    44    2
    10    42    41    1
    11    46    48    1
    12    46    44    1
    13    43    41    1
    14    44    39    1
    15    41    40    1
    16    39    40    1
    17    39    36    1
    18    35    36    1
    19    35    34    1
    20    36    37    1
    21    33    34    1
    22    33    32    1
    23    37    54    1
    24    37    38    1
    25    34    38    1
    26    32     1    1
    27    55    54    1
    28    38    56    1
    29     5     4    2
    30     3     1    1
    31     3     4    1
    32     2     1    2
    33     1    30    1
    34    27    26    1
    35     4    28    1
    36     4     6    1
    37    29    28    1
    38    56    57    1
    39    26    12    1
    40    23    21    1
    41    22    21    1
    42    30    31    1
    43     6     7    1
    44    21    19   am
    45     8    12    1
    46     8     9    1
    47     8     7    1
    48    12    11    1
    49     9    10    1
    50    10    11    1
    51    10    13    1
    52    24    11    1
    53    24    25    1
    54    14    13    1
    55    14    15    2
    56    19    15    1
    57    19    20    2
    58    13    18    1
    59    15    16    1
    60    18    17    2
    61    16    17    1
