@<TRIPOS>MOLECULE
./ligand/1ugx_lig.pdb
 54 55 0 0 0
SMALL
GASTEIGER

@<TRIPOS>ATOM
      1  C1        38.2590   34.4510   25.4310 C.3   609  INH609      0.1884
      2  C2        39.3090   34.6100   24.3490 C.3   609  INH609      0.1341
      3  C3        40.0520   35.9310   24.5350 C.3   609  INH609      0.1141
      4  C4        39.0350   37.1720   24.4260 C.3   609  INH609      0.1119
      5  C5        37.9510   37.0050   25.5490 C.3   609  INH609      0.1130
      6  C6        36.7700   37.8920   25.9000 C.3   609  INH609      0.0730
      7  O1        40.1670   33.4770   24.4450 O.3   609  INH609     -0.3841
      8  O2        41.0350   36.0550   23.5120 O.3   609  INH609     -0.3864
      9  O3        38.3350   37.1690   23.1730 O.3   609  INH609     -0.3865
     10  O4        37.3220   35.6210   25.4040 O.3   609  INH609     -0.3405
     11  O5        35.7330   37.8690   26.8680 O.3   609  INH609     -0.3924
     12  O6        32.0040   32.6350   26.5090 O.3   609  INH609     -0.3924
     13  C7        32.8500   33.0820   27.5500 C.3   609  INH609      0.0730
     14  C8        34.2970   32.5870   27.4100 C.3   609  INH609      0.1130
     15  O7        34.3580   31.0970   27.0990 O.3   609  INH609     -0.3412
     16  C9        35.7100   30.4760   26.9570 C.3   609  INH609      0.1799
     17  O8        36.3570   30.4950   28.2390 O.3   609  INH609     -0.3526
     18  C10       35.7250   29.7650   29.4700 C.3   609  INH609      0.0395
     19  C11       36.5020   31.2500   25.9000 C.3   609  INH609      0.1026
     20  N1        37.7340   30.5590   25.8660 N.am  609  INH609     -0.3053
     21  C12       38.4030   30.2170   24.7300 C.2   609  INH609      0.2104
     22  O9        37.8600   30.1380   23.6130 O.2   609  INH609     -0.2761
     23  C13       39.8880   29.9270   24.8530 C.3   609  INH609      0.0122
     24  C14       36.5490   32.7350   26.2580 C.3   609  INH609      0.1130
     25  O10       37.2990   33.3920   25.2820 O.3   609  INH609     -0.3408
     26  C15       35.1040   33.3520   26.2630 C.3   609  INH609      0.1116
     27  O11       34.5370   33.0940   24.9530 O.3   609  INH609     -0.3865
     28  H1        38.7750   34.3610   26.3980 H     609  INH609      0.0938
     29  H2        38.8270   34.6160   23.3600 H     609  INH609      0.0671
     30  H3        40.5380   35.9410   25.5220 H     609  INH609      0.0648
     31  H4        39.5840   38.1170   24.5500 H     609  INH609      0.0647
     32  H5        38.5550   37.0080   26.4680 H     609  INH609      0.0647
     33  H6        36.2120   37.9330   24.9530 H     609  INH609      0.0584
     34  H7        37.2490   38.8650   26.0860 H     609  INH609      0.0584
     35  H8        39.6590   32.6840   24.3230 H     609  INH609      0.2101
     36  H9        41.6420   35.3260   23.5660 H     609  INH609      0.2100
     37  H10       38.9580   37.2680   22.4620 H     609  INH609      0.2100
     38  H11       35.1750   38.6290   26.7530 H     609  INH609      0.2095
     39  H12       31.1260   32.9710   26.6480 H     609  INH609      0.2095
     40  H13       32.4480   32.7190   28.5070 H     609  INH609      0.0584
     41  H14       32.8550   34.1820   27.5480 H     609  INH609      0.0584
     42  H15       34.8040   32.7660   28.3700 H     609  INH609      0.0647
     43  H16       35.6030   29.4320   26.6270 H     609  INH609      0.0930
     44  H17       36.3730   29.9000   30.3490 H     609  INH609      0.0525
     45  H18       35.6260   28.6920   29.2490 H     609  INH609      0.0525
     46  H19       34.7320   30.1900   29.6780 H     609  INH609      0.0525
     47  H20       36.0160   31.1620   24.9170 H     609  INH609      0.0575
     48  H21       38.1450   30.3020   26.7410 H     609  INH609      0.1492
     49  H22       40.2940   29.6660   23.8640 H     609  INH609      0.0322
     50  H23       40.0410   29.0860   25.5450 H     609  INH609      0.0322
     51  H24       40.4050   30.8180   25.2380 H     609  INH609      0.0322
     52  H25       37.0120   32.8650   27.2470 H     609  INH609      0.0644
     53  H26       35.1280   34.4330   26.4640 H     609  INH609      0.0647
     54  H27       33.6580   33.4520   24.9120 H     609  INH609      0.2100
@<TRIPOS>BOND
     1     1    25    1
     2     1    28    1
     3     1    10    1
     4     1     2    1
     5     2    29    1
     6     2     7    1
     7     2     3    1
     8     3    30    1
     9     3     8    1
    10     3     4    1
    11     4    31    1
    12     4     9    1
    13     4     5    1
    14     5    32    1
    15     5    10    1
    16     5     6    1
    17     6    34    1
    18     6    33    1
    19     6    11    1
    20     7    35    1
    21     8    36    1
    22     9    37    1
    23    11    38    1
    24    12    39    1
    25    12    13    1
    26    13    41    1
    27    13    40    1
    28    13    14    1
    29    14    42    1
    30    14    26    1
    31    14    15    1
    32    15    16    1
    33    16    43    1
    34    16    19    1
    35    16    17    1
    36    17    18    1
    37    18    46    1
    38    18    45    1
    39    18    44    1
    40    19    47    1
    41    19    24    1
    42    19    20    1
    43    20    48    1
    44    20    21   am
    45    21    23    1
    46    21    22    2
    47    23    51    1
    48    23    50    1
    49    23    49    1
    50    24    52    1
    51    24    26    1
    52    24    25    1
    53    26    53    1
    54    26    27    1
    55    27    54    1
