@<TRIPOS>MOLECULE
/tmp/ewbell/vina_1ugx_1ugx_lig/vina/vina1.pdbqt
 34 35 0 0 0
SMALL
GASTEIGER

@<TRIPOS>ATOM
      1  C8        34.3770   32.3370   27.5670 C.3   609  INH609      0.1790
      2  O7        34.5380   30.8790   27.1540 O.3   609  INH609     -0.3490
      3  C9        35.9270   30.3690   26.9460 C.3   609  INH609      0.2840
      4  C11       36.6370   31.2670   25.9300 C.3   609  INH609      0.1710
      5  C14       36.5860   32.7250   26.3870 C.3   609  INH609      0.1830
      6  C15       35.1010   33.2330   26.4600 C.3   609  INH609      0.1800
      7  O10       37.2640   33.4980   25.4440 O.3   609  INH609     -0.3480
      8  C1        37.4960   34.9160   25.4270 C.3   609  INH609      0.2920
      9  O4        36.8250   35.2470   24.1280 O.3   609  INH609     -0.3480
     10  C5        36.8300   36.7160   23.7110 C.3   609  INH609      0.1790
     11  C4        38.3190   37.2120   23.6750 C.3   609  INH609      0.1800
     12  C3        38.9780   36.8940   25.1080 C.3   609  INH609      0.1830
     13  C2        38.9350   35.3960   25.3980 C.3   609  INH609      0.2040
     14  C6        35.7590   36.7790   22.6360 C.3   609  INH609      0.1980
     15  O5        35.2420   35.8860   21.6620 O.3   609  INH609     -0.3980
     16  H11       35.8770   35.7750   20.9650 H     609  INH609      0.2090
     17  O3        38.9720   36.4850   22.6250 O.3   609  INH609     -0.3900
     18  H10       39.3410   37.0960   21.9970 H     609  INH609      0.2100
     19  O2        40.3360   37.3210   25.0910 O.3   609  INH609     -0.3900
     20  H9        40.4110   38.1600   25.5300 H     609  INH609      0.2100
     21  O1        39.5000   35.0630   26.6620 O.3   609  INH609     -0.3880
     22  H8        40.2220   35.6500   26.8510 H     609  INH609      0.2100
     23  N1        37.9140   30.6720   25.8270 N.am  609  INH609     -0.3490
     24  H21       38.4000   30.4670   26.6770 H     609  INH609      0.1630
     25  C12       38.5330   30.3560   24.6550 C.2   609  INH609      0.2140
     26  C13       39.9110   29.7260   24.7400 C.3   609  INH609      0.1170
     27  O9        38.0290   30.5640   23.5360 O.2   609  INH609     -0.2740
     28  O11       34.5240   33.0210   25.1460 O.3   609  INH609     -0.3900
     29  H27       34.7790   32.1660   24.8210 H     609  INH609      0.2100
     30  O8        36.6000   30.3500   28.2140 O.3   609  INH609     -0.3640
     31  C10       35.9660   29.6320   29.4520 C.3   609  INH609      0.2040
     32  C7        32.9020   32.7140   27.7660 C.3   609  INH609      0.1980
     33  O6        32.1450   32.6580   26.5730 O.3   609  INH609     -0.3980
     34  H12       32.7320   32.6350   25.8260 H     609  INH609      0.2090
@<TRIPOS>BOND
     1    16    15    1
     2    15    14    1
     3    18    17    1
     4    17    11    1
     5    14    10    1
     6    27    25    2
     7    11    10    1
     8    11    12    1
     9    10     9    1
    10     9     8    1
    11    25    26    1
    12    25    23   am
    13    29    28    1
    14    19    12    1
    15    19    20    1
    16    12    13    1
    17    28     6    1
    18    13     8    1
    19    13    21    1
    20     8     7    1
    21     7     5    1
    22    34    33    1
    23    23     4    1
    24    23    24    1
    25     4     5    1
    26     4     3    1
    27     5     6    1
    28     6     1    1
    29    33    32    1
    30    21    22    1
    31     3     2    1
    32     3    30    1
    33     2     1    1
    34     1    32    1
    35    30    31    1
