@<TRIPOS>MOLECULE
/tmp/ewbell/vina_1ugx_1ugx_lig/vina/vina5.pdbqt
 34 35 0 0 0
SMALL
GASTEIGER

@<TRIPOS>ATOM
      1  C8        31.0600   53.8720   25.5630 C.3   609  INH609      0.1790
      2  O7        30.1360   54.7770   26.3680 O.3   609  INH609     -0.3490
      3  C9        29.6130   54.2510   27.6660 C.3   609  INH609      0.2840
      4  C11       28.9210   52.9080   27.4140 C.3   609  INH609      0.1710
      5  C14       29.8760   51.9470   26.7070 C.3   609  INH609      0.1830
      6  C15       30.2820   52.5030   25.2950 C.3   609  INH609      0.1800
      7  O10       29.2100   50.7340   26.5220 O.3   609  INH609     -0.3480
      8  C1        29.6330   49.4030   26.8590 C.3   609  INH609      0.2920
      9  O4        29.3490   48.7290   25.5510 O.3   609  INH609     -0.3480
     10  C5        29.6750   47.2400   25.4640 C.3   609  INH609      0.1790
     11  C4        28.9070   46.5000   26.6150 C.3   609  INH609      0.1800
     12  C3        29.2930   47.2150   28.0030 C.3   609  INH609      0.1830
     13  C2        28.8950   48.6890   27.9750 C.3   609  INH609      0.2040
     14  C6        29.6810   46.9700   23.9700 C.3   609  INH609      0.1980
     15  O5        30.1470   45.9280   23.1260 O.3   609  INH609     -0.3980
     16  H11       30.1190   46.2170   22.2220 H     609  INH609      0.2090
     17  O3        27.5080   46.6300   26.3290 O.3   609  INH609     -0.3900
     18  H10       27.2860   47.5500   26.2370 H     609  INH609      0.2100
     19  O2        28.5920   46.5690   29.0610 O.3   609  INH609     -0.3900
     20  H9        28.7640   47.0210   29.8780 H     609  INH609      0.2100
     21  O1        29.2230   49.3710   29.1820 O.3   609  INH609     -0.3880
     22  H8        28.4290   49.6910   29.5910 H     609  INH609      0.2100
     23  N1        28.4770   52.5400   28.7040 N.am  609  INH609     -0.3490
     24  H21       29.1350   52.6020   29.4550 H     609  INH609      0.1630
     25  C12       27.2200   52.1060   28.9990 C.2   609  INH609      0.2140
     26  C13       26.9260   51.7480   30.4440 C.3   609  INH609      0.1170
     27  O9        26.3190   51.9860   28.1490 O.2   609  INH609     -0.2740
     28  O11       29.0490   52.7280   24.5660 O.3   609  INH609     -0.3900
     29  H27       28.6050   51.8990   24.4310 H     609  INH609      0.2100
     30  O8        30.7120   54.1290   28.5830 O.3   609  INH609     -0.3640
     31  C10       31.6790   55.3310   28.8450 C.3   609  INH609      0.2040
     32  C7        31.5360   54.5490   24.2690 C.3   609  INH609      0.1980
     33  O6        30.4890   55.1600   23.5420 O.3   609  INH609     -0.3980
     34  H12       29.9050   55.6090   24.1430 H     609  INH609      0.2090
@<TRIPOS>BOND
     1    16    15    1
     2    15    14    1
     3    33    34    1
     4    33    32    1
     5    14    10    1
     6    32     1    1
     7    29    28    1
     8    28     6    1
     9     6     1    1
    10     6     5    1
    11    10     9    1
    12    10    11    1
    13     9     8    1
    14     1     2    1
    15    18    17    1
    16    17    11    1
    17     2     3    1
    18     7     5    1
    19     7     8    1
    20    11    12    1
    21     5     4    1
    22     8    13    1
    23     4     3    1
    24     4    23    1
    25     3    30    1
    26    13    12    1
    27    13    21    1
    28    12    19    1
    29    27    25    2
    30    30    31    1
    31    23    25   am
    32    23    24    1
    33    25    26    1
    34    19    20    1
    35    21    22    1
