@<TRIPOS>MOLECULE
/tmp/ewbell/vina_1ugx_1ugx_lig/vina/vina2.pdbqt
 34 35 0 0 0
SMALL
GASTEIGER

@<TRIPOS>ATOM
      1  C8        27.7250   53.9190   27.3600 C.3   609  INH609      0.1790
      2  O7        28.8240   54.0690   28.4040 O.3   609  INH609     -0.3490
      3  C9        30.0310   53.1980   28.2660 C.3   609  INH609      0.2840
      4  C11       29.5830   51.7360   28.2030 C.3   609  INH609      0.1710
      5  C14       28.5620   51.5440   27.0820 C.3   609  INH609      0.1830
      6  C15       27.2670   52.3890   27.3580 C.3   609  INH609      0.1800
      7  O10       28.2040   50.1960   27.0500 O.3   609  INH609     -0.3480
      8  C1        28.3210   49.2480   25.9760 C.3   609  INH609      0.2920
      9  O4        27.2170   48.3130   26.3670 O.3   609  INH609     -0.3480
     10  C5        26.9790   47.1140   25.4510 C.3   609  INH609      0.1790
     11  C4        28.3250   46.3170   25.3250 C.3   609  INH609      0.1800
     12  C3        29.4630   47.3450   24.8420 C.3   609  INH609      0.1830
     13  C2        29.6230   48.4810   25.8500 C.3   609  INH609      0.2040
     14  C6        25.5980   46.6320   25.8580 C.3   609  INH609      0.1980
     15  O5        24.8440   46.5990   27.0600 O.3   609  INH609     -0.3980
     16  H11       23.9380   46.8110   26.8710 H     609  INH609      0.2090
     17  O3        28.6150   45.7870   26.6270 O.3   609  INH609     -0.3900
     18  H10       29.2460   45.0800   26.5480 H     609  INH609      0.2100
     19  O2        30.6980   46.6440   24.7380 O.3   609  INH609     -0.3900
     20  H9        31.2670   47.0930   24.1240 H     609  INH609      0.2100
     21  O1        30.6160   49.4260   25.4630 O.3   609  INH609     -0.3880
     22  H8        30.7790   50.0260   26.1800 H     609  INH609      0.2100
     23  N1        30.8060   51.0400   28.0830 N.am  609  INH609     -0.3490
     24  H21       31.4440   51.3420   27.3740 H     609  INH609      0.1630
     25  C12       31.1820   49.9870   28.8620 C.2   609  INH609      0.2140
     26  C13       32.5350   49.3590   28.5820 C.3   609  INH609      0.1170
     27  O9        30.4740   49.5220   29.7740 O.2   609  INH609     -0.2740
     28  O11       26.7740   51.9810   28.6600 O.3   609  INH609     -0.3900
     29  H27       25.9820   52.4650   28.8650 H     609  INH609      0.2100
     30  O8        30.7460   53.5950   27.0850 O.3   609  INH609     -0.3640
     31  C10       31.0880   55.0990   26.8190 C.3   609  INH609      0.2040
     32  C7        26.5610   54.8880   27.6130 C.3   609  INH609      0.1980
     33  O6        25.3120   54.3860   27.1800 O.3   609  INH609     -0.3980
     34  H12       25.3800   54.1070   26.2740 H     609  INH609      0.2090
@<TRIPOS>BOND
     1    20    19    1
     2    19    12    1
     3    12    11    1
     4    12    13    1
     5    11    10    1
     6    11    17    1
     7    10    14    1
     8    10     9    1
     9    21    13    1
    10    21    22    1
    11    13     8    1
    12    14    15    1
    13     8     9    1
    14     8     7    1
    15    34    33    1
    16    18    17    1
    17    31    30    1
    18    16    15    1
    19     7     5    1
    20     5     6    1
    21     5     4    1
    22    30     3    1
    23    33    32    1
    24     6     1    1
    25     6    28    1
    26     1    32    1
    27     1     2    1
    28    24    23    1
    29    23     4    1
    30    23    25   am
    31     4     3    1
    32     3     2    1
    33    26    25    1
    34    28    29    1
    35    25    27    2
