@<TRIPOS>MOLECULE
/tmp/ewbell/vina_1ugx_1ugx_lig/vina/vina3.pdbqt
 34 35 0 0 0
SMALL
GASTEIGER

@<TRIPOS>ATOM
      1  C8        29.5520   45.6140   32.0980 C.3   609  INH609      0.1790
      2  O7        30.9740   45.0690   32.1310 O.3   609  INH609     -0.3490
      3  C9        31.9700   45.6810   31.2000 C.3   609  INH609      0.2840
      4  C11       31.4270   45.6010   29.7710 C.3   609  INH609      0.1710
      5  C14       30.0450   46.2480   29.6950 C.3   609  INH609      0.1830
      6  C15       29.0180   45.4760   30.5990 C.3   609  INH609      0.1800
      7  O10       29.6040   46.1720   28.3740 O.3   609  INH609     -0.3480
      8  C1        29.1630   47.2240   27.4990 C.3   609  INH609      0.2920
      9  O4        27.8890   46.6040   27.0100 O.3   609  INH609     -0.3480
     10  C5        27.0630   47.4260   26.0240 C.3   609  INH609      0.1790
     11  C4        27.9760   47.7880   24.8000 C.3   609  INH609      0.1800
     12  C3        29.2970   48.5070   25.3670 C.3   609  INH609      0.1830
     13  C2        30.0470   47.5780   26.3190 C.3   609  INH609      0.2040
     14  C6        25.7040   46.7500   26.0570 C.3   609  INH609      0.1980
     15  O5        24.7580   46.4150   27.0600 O.3   609  INH609     -0.3980
     16  H11       24.8670   46.9940   27.8040 H     609  INH609      0.2090
     17  O3        28.2910   46.5540   24.1410 O.3   609  INH609     -0.3900
     18  H10       29.2140   46.5430   23.9130 H     609  INH609      0.2100
     19  O2        30.1490   48.8290   24.2720 O.3   609  INH609     -0.3900
     20  H9        30.2920   48.0530   23.7430 H     609  INH609      0.2100
     21  O1        31.2240   48.1730   26.8570 O.3   609  INH609     -0.3880
     22  H8        31.8780   47.5010   27.0080 H     609  INH609      0.2100
     23  N1        32.4580   46.1980   29.0120 N.am  609  INH609     -0.3490
     24  H21       32.7440   47.1230   29.2660 H     609  INH609      0.1630
     25  C12       33.0920   45.6080   27.9610 C.2   609  INH609      0.2140
     26  C13       34.1740   46.4070   27.2590 C.3   609  INH609      0.1170
     27  O9        32.8230   44.4630   27.5530 O.2   609  INH609     -0.2740
     28  O11       29.0310   44.0940   30.1570 O.3   609  INH609     -0.3900
     29  H27       28.2950   43.6320   30.5400 H     609  INH609      0.2100
     30  O8        32.2080   47.0350   31.6140 O.3   609  INH609     -0.3640
     31  C10       32.6180   47.3680   33.0870 C.3   609  INH609      0.2040
     32  C7        28.6470   44.9100   33.1200 C.3   609  INH609      0.1980
     33  O6        27.2960   44.8360   32.7100 O.3   609  INH609     -0.3980
     34  H12       26.7540   44.5850   33.4490 H     609  INH609      0.2090
@<TRIPOS>BOND
     1    20    19    1
     2    18    17    1
     3    17    11    1
     4    19    12    1
     5    11    12    1
     6    11    10    1
     7    12    13    1
     8    10    14    1
     9    10     9    1
    10    14    15    1
    11    13    21    1
    12    13     8    1
    13    21    22    1
    14     9     8    1
    15    15    16    1
    16    26    25    1
    17     8     7    1
    18    27    25    2
    19    25    23   am
    20     7     5    1
    21    23    24    1
    22    23     4    1
    23     5     4    1
    24     5     6    1
    25     4     3    1
    26    28    29    1
    27    28     6    1
    28     6     1    1
    29     3    30    1
    30     3     2    1
    31    30    31    1
    32     1     2    1
    33     1    32    1
    34    33    32    1
    35    33    34    1
