@<TRIPOS>MOLECULE
/tmp/ewbell/vina_1ugx_1ugx_lig/vina/vina4.pdbqt
 34 35 0 0 0
SMALL
GASTEIGER

@<TRIPOS>ATOM
      1  C8        27.5590   53.4140   27.9530 C.3   609  INH609      0.1790
      2  O7        27.2040   53.5230   29.4310 O.3   609  INH609     -0.3490
      3  C9        28.0020   52.7060   30.3940 C.3   609  INH609      0.2840
      4  C11       27.9470   51.2380   29.9640 C.3   609  INH609      0.1710
      5  C14       28.4110   51.0950   28.5140 C.3   609  INH609      0.1830
      6  C15       27.4520   51.8740   27.5440 C.3   609  INH609      0.1800
      7  O10       28.3670   49.7420   28.1770 O.3   609  INH609     -0.3480
      8  C1        28.5290   49.1180   26.8920 C.3   609  INH609      0.2920
      9  O4        27.3720   48.1660   26.9460 O.3   609  INH609     -0.3480
     10  C5        27.1620   47.2760   25.7240 C.3   609  INH609      0.1790
     11  C4        28.4880   46.4790   25.4620 C.3   609  INH609      0.1800
     12  C3        29.6870   47.5430   25.3470 C.3   609  INH609      0.1830
     13  C2        29.8130   48.3520   26.6360 C.3   609  INH609      0.2040
     14  C6        25.7410   46.7690   25.9010 C.3   609  INH609      0.1980
     15  O5        24.8690   46.5480   26.9980 O.3   609  INH609     -0.3980
     16  H11       24.6580   45.6240   27.0540 H     609  INH609      0.2090
     17  O3        28.6700   45.6010   26.5820 O.3   609  INH609     -0.3900
     18  H10       29.5970   45.4210   26.6970 H     609  INH609      0.2100
     19  O2        30.9050   46.8380   25.1260 O.3   609  INH609     -0.3900
     20  H9        31.5400   47.4190   24.7240 H     609  INH609      0.2100
     21  O1        30.8580   49.3170   26.5830 O.3   609  INH609     -0.3880
     22  H8        30.8780   49.8090   27.3940 H     609  INH609      0.2100
     23  N1        28.7240   50.5940   30.9520 N.am  609  INH609     -0.3490
     24  H21       29.7010   50.4770   30.7710 H     609  INH609      0.1630
     25  C12       28.2410   50.1190   32.1340 C.2   609  INH609      0.2140
     26  C13       29.2270   49.4490   33.0730 C.3   609  INH609      0.1170
     27  O9        27.0470   50.2060   32.4710 O.2   609  INH609     -0.2740
     28  O11       26.1170   51.3550   27.7740 O.3   609  INH609     -0.3900
     29  H27       26.1230   50.4100   27.6770 H     609  INH609      0.2100
     30  O8        29.3460   53.2130   30.4170 O.3   609  INH609     -0.3640
     31  C10       29.6400   54.6980   30.8140 C.3   609  INH609      0.2040
     32  C7        26.6750   54.3220   27.0860 C.3   609  INH609      0.1980
     33  O6        25.2970   54.2070   27.3810 O.3   609  INH609     -0.3980
     34  H12       24.9670   55.0440   27.6880 H     609  INH609      0.2090
@<TRIPOS>BOND
     1    20    19    1
     2    19    12    1
     3    12    11    1
     4    12    13    1
     5    11    10    1
     6    11    17    1
     7    10    14    1
     8    10     9    1
     9    14    15    1
    10    17    18    1
    11    21    13    1
    12    21    22    1
    13    13     8    1
    14     8     9    1
    15     8     7    1
    16    15    16    1
    17    32    33    1
    18    32     1    1
    19    33    34    1
    20     6    28    1
    21     6     1    1
    22     6     5    1
    23    29    28    1
    24     1     2    1
    25     7     5    1
    26     5     4    1
    27     2     3    1
    28     4     3    1
    29     4    23    1
    30     3    30    1
    31    30    31    1
    32    24    23    1
    33    23    25   am
    34    25    27    2
    35    25    26    1
