@<TRIPOS>MOLECULE
./ligand/1tt1_lig.pdb
 29 29 0 0 0
SMALL
GASTEIGER

@<TRIPOS>ATOM
      1  N1         2.1690    0.5040   24.1980 N.4   507  INH507      0.2379
      2  C1         3.1870    0.7010   25.2160 C.3   507  INH507      0.0844
      3  C2         4.2550   -0.4590   25.2630 C.2   507  INH507      0.4030
      4  O1         4.3490   -1.1400   24.2180 O.co2 507  INH507     -0.2400
      5  O2         4.9320   -0.5650   26.3310 O.co2 507  INH507     -0.2400
      6  H1         1.9850    1.3760   23.7270 H     507  INH507      0.2022
      7  H2         2.4850   -0.1790   23.5280 H     507  INH507      0.2022
      8  H3         3.7370    1.6240   24.9810 H     507  INH507      0.0973
      9  C3        -0.9750   -0.0870   27.1820 C.2   507  INH507     -0.0993
     10  C4         2.4360    0.9210   26.5050 C.3   507  INH507      0.0341
     11  C5         1.8050    2.3820   26.7350 C.3   507  INH507      0.0584
     12  C6         1.3620   -0.1190   26.4070 C.3   507  INH507      0.0287
     13  C7         0.8890    0.0040   24.8850 C.3   507  INH507     -0.0257
     14  C8         0.7020   -0.2880   28.9520 C.3   507  INH507     -0.0436
     15  C9         2.8530    3.3780   27.2490 C.2   507  INH507      0.3565
     16  C10        0.2610   -0.1620   27.5430 C.2   507  INH507     -0.0711
     17  O3         2.4780    4.5590   27.2590 O.co2 507  INH507     -0.2464
     18  O4         3.9750    2.9610   27.6130 O.co2 507  INH507     -0.2464
     19  H4         0.5730   -0.9700   24.4840 H     507  INH507      0.0820
     20  H5         0.0680    0.7280   24.7780 H     507  INH507      0.0820
     21  H6        -1.7640   -0.1130   27.9320 H     507  INH507      0.0534
     22  H7        -1.2300    0.0020   26.1270 H     507  INH507      0.0534
     23  H8        -0.1780   -0.3030   29.6120 H     507  INH507      0.0274
     24  H9         1.3420    0.5680   29.2140 H     507  INH507      0.0274
     25  H10        1.2700   -1.2220   29.0760 H     507  INH507      0.0274
     26  H11        3.1020    0.7100   27.3550 H     507  INH507      0.0374
     27  H12        0.9920    2.3070   27.4720 H     507  INH507      0.0384
     28  H13        1.4010    2.7500   25.7800 H     507  INH507      0.0384
     29  H14        1.8630   -1.0940   26.4980 H     507  INH507      0.0402
@<TRIPOS>BOND
     1     1     2    1
     2     1    13    1
     3     1     6    1
     4     1     7    1
     5     2     3    1
     6     2     8    1
     7     2    10    1
     8     3     5   ar
     9     3     4   ar
    10     9    16    2
    11     9    22    1
    12     9    21    1
    13    10    26    1
    14    10    12    1
    15    10    11    1
    16    11    28    1
    17    11    27    1
    18    11    15    1
    19    12    29    1
    20    12    16    1
    21    12    13    1
    22    13    20    1
    23    13    19    1
    24    14    16    1
    25    14    25    1
    26    14    24    1
    27    14    23    1
    28    15    18   ar
    29    15    17   ar
