@<TRIPOS>MOLECULE
/tmp/ewbell/vina_1tt1_1tt1_lig/vina/vina5.pdbqt
 19 19 0 0 0
SMALL
GASTEIGER

@<TRIPOS>ATOM
      1  N1         0.9360    3.1710   27.9400 N.4   507  INH507     -0.0600
      2  C1         2.0330    2.4480   28.5610 C.3   507  INH507      0.2870
      3  H1         0.1100    3.0930   28.5120 H     507  INH507      0.2780
      4  H2         1.1830    4.1430   27.8390 H     507  INH507      0.2780
      5  C4         2.0460    1.0890   27.9070 C.3   507  INH507      0.0460
      6  C6         1.8200    1.4460   26.4700 C.3   507  INH507      0.0460
      7  C7         0.6730    2.5560   26.5570 C.3   507  INH507      0.2420
      8  C5         0.9490    0.0300   28.4180 C.3   507  INH507      0.1170
      9  C9         1.5340   -0.9340   29.4580 C.2   507  INH507      0.1390
     10  O4         2.7740   -1.0720   29.5440 O.2   507  INH507     -0.6500
     11  O3         0.6880   -1.5160   30.1520 O.3   507  INH507     -0.7760
     12  H          0.9330   -1.8860   30.9780 H     507  INH507      0.1670
     13  C2         3.4060    3.2240   28.5000 C.2   507  INH507      0.1720
     14  O2         4.0320    3.1840   27.3970 O.2   507  INH507     -0.6480
     15  O1         3.7550    3.7750   29.5670 O.3   507  INH507     -0.7750
     16  H          3.4870    4.6550   29.7490 H     507  INH507      0.1670
     17  C10        1.6580    0.2680   25.4260 C.2   507  INH507     -0.0870
     18  C3         0.4780    0.0400   24.9580 C.2   507  INH507      0.0140
     19  C8         2.8620   -0.5070   25.0400 C.3   507  INH507      0.0430
@<TRIPOS>BOND
     1    18    17    2
     2    19    17    1
     3    17     6    1
     4     6     7    1
     5     6     5    1
     6     7     1    1
     7    14    13    2
     8     4     1    1
     9     5     8    1
    10     5     2    1
    11     1     3    1
    12     1     2    1
    13     8     9    1
    14    13     2    1
    15    13    15    1
    16     9    10    2
    17     9    11    1
    18    15    16    1
    19    11    12    1
