@<TRIPOS>MOLECULE
/tmp/ewbell/vina_1tt1_1tt1_lig/vina/vina3.pdbqt
 19 19 0 0 0
SMALL
GASTEIGER

@<TRIPOS>ATOM
      1  N1         1.7000   -0.1860   25.7690 N.4   507  INH507     -0.0600
      2  C1         0.3230    0.1570   26.0840 C.3   507  INH507      0.2870
      3  H1         1.9680   -1.0170   26.2730 H     507  INH507      0.2780
      4  H2         1.7920   -0.3510   24.7790 H     507  INH507      0.2780
      5  C4         0.4020    1.1850   27.1840 C.3   507  INH507      0.0460
      6  C6         1.5240    2.0530   26.7030 C.3   507  INH507      0.0460
      7  C7         2.5980    0.9880   26.1860 C.3   507  INH507      0.2420
      8  C5         0.6920    0.6360   28.6680 C.3   507  INH507      0.1170
      9  C9        -0.5560   -0.0020   29.2900 C.2   507  INH507      0.1390
     10  O4        -0.5080   -1.1840   29.6970 O.2   507  INH507     -0.6500
     11  O3        -1.5450    0.7430   29.3380 O.3   507  INH507     -0.7760
     12  H         -2.1480    0.7670   28.6210 H     507  INH507      0.1670
     13  C2        -0.5130    0.6020   24.8220 C.2   507  INH507      0.1720
     14  O2        -1.7270    0.9090   25.0250 O.2   507  INH507     -0.6480
     15  O1         0.1050    0.5730   23.7350 O.3   507  INH507     -0.7750
     16  H          0.0200   -0.1680   23.1680 H     507  INH507      0.1670
     17  C10        2.0130    3.2280   27.6440 C.2   507  INH507     -0.0870
     18  C3         1.2420    4.2550   27.7700 C.2   507  INH507      0.0140
     19  C8         3.3200    3.0890   28.3300 C.3   507  INH507      0.0430
@<TRIPOS>BOND
     1    16    15    1
     2    15    13    1
     3     4     1    1
     4    13    14    2
     5    13     2    1
     6     1     2    1
     7     1     7    1
     8     1     3    1
     9     2     5    1
    10     7     6    1
    11     6     5    1
    12     6    17    1
    13     5     8    1
    14    17    18    2
    15    17    19    1
    16    12    11    1
    17     8     9    1
    18     9    11    1
    19     9    10    2
