@<TRIPOS>MOLECULE
/tmp/ewbell/vina_1tt1_1tt1_lig/vina/vina2.pdbqt
 19 19 0 0 0
SMALL
GASTEIGER

@<TRIPOS>ATOM
      1  N1         3.0130    2.3670   27.2220 N.4   507  INH507     -0.0600
      2  C1         1.7640    2.8210   26.6340 C.3   507  INH507      0.2870
      3  H1         3.5910    1.9470   26.5120 H     507  INH507      0.2780
      4  H2         3.5000    3.1480   27.6330 H     507  INH507      0.2780
      5  C4         0.7730    1.7100   26.8750 C.3   507  INH507      0.0460
      6  C6         1.0880    1.3300   28.2890 C.3   507  INH507      0.0460
      7  C7         2.6860    1.3300   28.3080 C.3   507  INH507      0.2420
      8  C5         0.8650    0.4340   25.9000 C.3   507  INH507      0.1170
      9  C9        -0.3300    0.3670   24.9400 C.2   507  INH507      0.1390
     10  O4        -0.2330    0.8680   23.7980 O.2   507  INH507     -0.6500
     11  O3        -1.3290   -0.2030   25.4020 O.3   507  INH507     -0.7760
     12  H         -1.3760   -0.3970   26.3180 H     507  INH507      0.1670
     13  C2         1.3080    4.2380   27.1550 C.2   507  INH507      0.1720
     14  O2         2.0360    4.7780   28.0430 O.2   507  INH507     -0.6480
     15  O1         0.2440    4.6720   26.6590 O.3   507  INH507     -0.7750
     16  H          0.1200    5.5950   26.5510 H     507  INH507      0.1670
     17  C10        0.3220    0.0950   28.9170 C.2   507  INH507     -0.0870
     18  C3         1.0310   -0.8600   29.4140 C.2   507  INH507      0.0140
     19  C8        -1.1600    0.1010   28.9040 C.3   507  INH507      0.0430
@<TRIPOS>BOND
     1    10     9    2
     2     9    11    1
     3     9     8    1
     4    11    12    1
     5     8     5    1
     6     3     1    1
     7    16    15    1
     8     2     5    1
     9     2    13    1
    10     2     1    1
    11    15    13    1
    12     5     6    1
    13    13    14    2
    14     1     4    1
    15     1     7    1
    16     6     7    1
    17     6    17    1
    18    19    17    1
    19    17    18    2
