@<TRIPOS>MOLECULE
/tmp/ewbell/vina_1tt1_1tt1_lig/vina/vina4.pdbqt
 19 19 0 0 0
SMALL
GASTEIGER

@<TRIPOS>ATOM
      1  N1         0.1750    1.7120   25.8120 N.4   507  INH507     -0.0600
      2  C1         0.5240    2.3210   27.0840 C.3   507  INH507      0.2870
      3  H1        -0.7210    1.2570   25.8870 H     507  INH507      0.2780
      4  H2         0.1330    2.4200   25.0960 H     507  INH507      0.2780
      5  C4         1.4020    1.3180   27.7880 C.3   507  INH507      0.0460
      6  C6         2.2840    0.8550   26.6690 C.3   507  INH507      0.0460
      7  C7         1.2560    0.6790   25.4580 C.3   507  INH507      0.2420
      8  C5         0.6630    0.0760   28.4920 C.3   507  INH507      0.1170
      9  C9        -0.8640    0.2290   28.4530 C.2   507  INH507      0.1390
     10  O4        -1.5000   -0.1800   27.4560 O.2   507  INH507     -0.6500
     11  O3        -1.3520    0.7680   29.4560 O.3   507  INH507     -0.7760
     12  H         -0.9220    0.6900   30.2860 H     507  INH507      0.1670
     13  C2         1.1530    3.7610   26.9360 C.2   507  INH507      0.1720
     14  O2         0.4100    4.6550   26.4280 O.2   507  INH507     -0.6480
     15  O1         2.3440    3.8640   27.3050 O.3   507  INH507     -0.7750
     16  H          2.8740    3.0960   27.3960 H     507  INH507      0.1670
     17  C10        3.3140   -0.3090   26.9660 C.2   507  INH507     -0.0870
     18  C3         4.0250   -0.7460   25.9810 C.2   507  INH507      0.0140
     19  C8         3.4120   -0.8340   28.3490 C.3   507  INH507      0.0430
@<TRIPOS>BOND
     1     4     1    1
     2     7     1    1
     3     7     6    1
     4     1     3    1
     5     1     2    1
     6    18    17    2
     7    14    13    2
     8     6    17    1
     9     6     5    1
    10    13     2    1
    11    13    15    1
    12    17    19    1
    13     2     5    1
    14    15    16    1
    15    10     9    2
    16     5     8    1
    17     9     8    1
    18     9    11    1
    19    11    12    1
