@<TRIPOS>MOLECULE
/tmp/ewbell/vina_1tt1_1tt1_lig/vina/vina1.pdbqt
 19 19 0 0 0
SMALL
GASTEIGER

@<TRIPOS>ATOM
      1  N1         1.7970    0.3480   24.4690 N.4   507  INH507     -0.0600
      2  C1         2.9880    0.6110   25.2580 C.3   507  INH507      0.2870
      3  H1         1.5070    1.1920   24.0000 H     507  INH507      0.2780
      4  H2         1.9930   -0.3660   23.7850 H     507  INH507      0.2780
      5  C4         2.4960    0.8900   26.6560 C.3   507  INH507      0.0460
      6  C6         1.4470   -0.1670   26.8210 C.3   507  INH507      0.0460
      7  C7         0.6860   -0.1300   25.4150 C.3   507  INH507      0.2420
      8  C5         1.8900    2.3530   26.9320 C.3   507  INH507      0.1170
      9  C9         2.9150    3.2740   27.6080 C.2   507  INH507      0.1390
     10  O4         2.5190    4.1900   28.3620 O.2   507  INH507     -0.6500
     11  O3         4.0960    3.0170   27.3350 O.3   507  INH507     -0.7760
     12  H          4.5050    3.4240   26.5960 H     507  INH507      0.1670
     13  C2         4.0710   -0.5320   25.1550 C.2   507  INH507      0.1720
     14  O2         4.8690   -0.6490   26.1340 O.2   507  INH507     -0.6480
     15  O1         4.0520   -1.1890   24.0900 O.3   507  INH507     -0.7750
     16  H          4.6730   -1.0020   23.4130 H     507  INH507      0.1670
     17  C10        0.5880   -0.1630   28.1500 C.2   507  INH507     -0.0870
     18  C3         1.1930   -0.4390   29.2550 C.2   507  INH507      0.0140
     19  C8        -0.8560    0.1590   28.0580 C.3   507  INH507      0.0430
@<TRIPOS>BOND
     1    16    15    1
     2     4     1    1
     3     3     1    1
     4    15    13    1
     5     1     2    1
     6     1     7    1
     7    13     2    1
     8    13    14    2
     9     2     5    1
    10     7     6    1
    11    12    11    1
    12     5     6    1
    13     5     8    1
    14     6    17    1
    15     8     9    1
    16    11     9    1
    17     9    10    2
    18    19    17    1
    19    17    18    2
