@<TRIPOS>MOLECULE
./ligand/1sw1_lig.pdb
 23 23 0 0 0
SMALL
GASTEIGER

@<TRIPOS>ATOM
      1  N1        13.5970    2.1320   15.1660 N.4   276  INH276      0.2492
      2  C1        12.3000    2.1790   15.7850 C.3   276  INH276     -0.0296
      3  C2        13.9600    3.4960   14.8080 C.3   276  INH276      0.0835
      4  C3        13.4950    4.2730   16.0480 C.3   276  INH276      0.0059
      5  C4        12.5720    3.3170   16.7550 C.3   276  INH276     -0.0068
      6  C5        14.4490    1.6270   16.2540 C.3   276  INH276     -0.0407
      7  C6        13.5800    1.3710   13.9090 C.3   276  INH276     -0.0407
      8  C7        15.4350    3.5270   14.5670 C.2   276  INH276      0.4028
      9  O1        15.8980    3.2440   13.4280 O.co2 276  INH276     -0.2400
     10  O2        16.1370    3.8610   15.5430 O.co2 276  INH276     -0.2400
     11  H1        12.0510    1.2410   16.3020 H     276  INH276      0.0815
     12  H2        11.5040    2.4250   15.0670 H     276  INH276      0.0815
     13  H3        13.4320    3.8450   13.9080 H     276  INH276      0.0971
     14  H4        12.9600    5.1890   15.7570 H     276  INH276      0.0327
     15  H5        14.3500    4.5350   16.6880 H     276  INH276      0.0327
     16  H6        13.0510    2.9320   17.6670 H     276  INH276      0.0319
     17  H7        11.6320    3.8230   17.0200 H     276  INH276      0.0319
     18  H8        14.1530    0.5970   16.5030 H     276  INH276      0.0778
     19  H9        14.3300    2.2670   17.1400 H     276  INH276      0.0778
     20  H10       15.5010    1.6390   15.9320 H     276  INH276      0.0778
     21  H11       12.9050    1.8620   13.1920 H     276  INH276      0.0778
     22  H12       13.2260    0.3480   14.1040 H     276  INH276      0.0778
     23  H13       14.5960    1.3340   13.4890 H     276  INH276      0.0778
@<TRIPOS>BOND
     1     1     7    1
     2     1     6    1
     3     1     3    1
     4     1     2    1
     5     2    12    1
     6     2    11    1
     7     2     5    1
     8     3     4    1
     9     3    13    1
    10     3     8    1
    11     4     5    1
    12     4    15    1
    13     4    14    1
    14     5    17    1
    15     5    16    1
    16     6    20    1
    17     6    19    1
    18     6    18    1
    19     7    23    1
    20     7    22    1
    21     7    21    1
    22     8    10   ar
    23     8     9   ar
