@<TRIPOS>MOLECULE
/tmp/ewbell/vina_1sw1_1sw1_lig/vina/vina1.pdbqt
 11 11 0 0 0
SMALL
GASTEIGER

@<TRIPOS>ATOM
      1  N1        13.5420    2.2450   14.8710 N.4   276  INH276     -0.0610
      2  C1        12.2510    2.0970   15.4870 C.3   276  INH276      0.2370
      3  C2        13.9050    3.6530   14.9490 C.3   276  INH276      0.2860
      4  C3        13.4540    4.0070   16.3730 C.3   276  INH276      0.0460
      5  C4        12.5360    2.8790   16.7590 C.3   276  INH276      0.0300
      6  C5        14.4030    1.4280   15.7400 C.3   276  INH276      0.2730
      7  C6        13.5100    1.9100   13.4400 C.3   276  INH276      0.2730
      8  C7        15.3770    3.7570   14.7140 C.2   276  INH276      0.1720
      9  O2        16.0620    4.0890   15.7030 O.2   276  INH276     -0.6480
     10  O1        15.8550    3.5350   13.5670 O.3   276  INH276     -0.7750
     11  H         16.6310    3.0180   13.4750 H     276  INH276      0.1670
@<TRIPOS>BOND
     1     7     1    1
     2    11    10    1
     3    10     8    1
     4     8     3    1
     5     8     9    2
     6     1     3    1
     7     1     2    1
     8     1     6    1
     9     3     4    1
    10     2     5    1
    11     4     5    1
