@<TRIPOS>MOLECULE
/tmp/ewbell/vina_1sw1_1sw1_lig/vina/vina3.pdbqt
 11 11 0 0 0
SMALL
GASTEIGER

@<TRIPOS>ATOM
      1  N1        13.6640    2.4120   16.0610 N.4   276  INH276     -0.0610
      2  C1        12.8760    1.2280   15.8490 C.3   276  INH276      0.2370
      3  C2        14.5860    2.5290   14.9410 C.3   276  INH276      0.2860
      4  C3        13.6810    2.1550   13.7580 C.3   276  INH276      0.0460
      5  C4        12.4960    1.4860   14.4010 C.3   276  INH276      0.0300
      6  C5        12.6500    3.4780   16.0250 C.3   276  INH276      0.2730
      7  C6        14.4980    2.3100   17.2670 C.3   276  INH276      0.2730
      8  C7        15.0980    3.9340   14.9170 C.2   276  INH276      0.1720
      9  O2        14.4970    4.7170   14.1530 O.2   276  INH276     -0.6480
     10  O1        16.0900    4.2600   15.6250 O.3   276  INH276     -0.7750
     11  H         16.9520    3.9920   15.3750 H     276  INH276      0.1670
@<TRIPOS>BOND
     1     4     5    1
     2     4     3    1
     3     9     8    2
     4     5     2    1
     5     8     3    1
     6     8    10    1
     7     3     1    1
     8    11    10    1
     9     2     1    1
    10     6     1    1
    11     1     7    1
