@<TRIPOS>MOLECULE
/tmp/ewbell/vina_1sw1_1sw1_lig/vina/vina2.pdbqt
 11 11 0 0 0
SMALL
GASTEIGER

@<TRIPOS>ATOM
      1  N1        13.4640    3.1320   16.0820 N.4   276  INH276     -0.0610
      2  C1        13.9540    4.4580   16.3460 C.3   276  INH276      0.2370
      3  C2        13.5690    2.9050   14.6480 C.3   276  INH276      0.2860
      4  C3        14.9410    3.5210   14.3380 C.3   276  INH276      0.0460
      5  C4        15.2430    4.3680   15.5460 C.3   276  INH276      0.0300
      6  C5        14.4180    2.2890   16.8210 C.3   276  INH276      0.2730
      7  C6        12.0390    2.9950   16.4140 C.3   276  INH276      0.2730
      8  C7        13.4770    1.4320   14.4110 C.2   276  INH276      0.1720
      9  O2        14.5490    0.8610   14.1260 O.2   276  INH276     -0.6480
     10  O1        12.3620    0.8460   14.4850 O.3   276  INH276     -0.7750
     11  H         11.9050    0.8120   15.3030 H     276  INH276      0.1670
@<TRIPOS>BOND
     1     9     8    2
     2     4     3    1
     3     4     5    1
     4     8    10    1
     5     8     3    1
     6    10    11    1
     7     3     1    1
     8     5     2    1
     9     1     2    1
    10     1     7    1
    11     1     6    1
