@<TRIPOS>MOLECULE
/tmp/ewbell/vina_1sw1_1sw1_lig/vina/vina4.pdbqt
 11 11 0 0 0
SMALL
GASTEIGER

@<TRIPOS>ATOM
      1  N1        13.9070    3.1890   15.6120 N.4   276  INH276     -0.0610
      2  C1        14.7020    3.1450   14.4150 C.3   276  INH276      0.2370
      3  C2        12.6220    2.5770   15.3060 C.3   276  INH276      0.2860
      4  C3        13.0500    1.3700   14.4600 C.3   276  INH276      0.0460
      5  C4        14.4670    1.6860   14.0610 C.3   276  INH276      0.0300
      6  C5        14.6830    2.3510   16.5390 C.3   276  INH276      0.2730
      7  C6        13.6140    4.5680   16.0280 C.3   276  INH276      0.2730
      8  C7        11.9610    2.2310   16.6010 C.2   276  INH276      0.1720
      9  O2        12.6870    2.2970   17.6140 O.2   276  INH276     -0.6480
     10  O1        10.7490    1.8800   16.6220 O.3   276  INH276     -0.7750
     11  H         10.4250    1.3600   17.3310 H     276  INH276      0.1670
@<TRIPOS>BOND
     1     5     2    1
     2     5     4    1
     3     2     1    1
     4     4     3    1
     5     3     1    1
     6     3     8    1
     7     1     7    1
     8     1     6    1
     9     8    10    1
    10     8     9    2
    11    10    11    1
