@<TRIPOS>MOLECULE
/tmp/ewbell/vina_1sw1_1sw1_lig/vina/vina5.pdbqt
 11 11 0 0 0
SMALL
GASTEIGER

@<TRIPOS>ATOM
      1  N1        14.2250    2.3270   14.9290 N.4   276  INH276     -0.0610
      2  C1        15.3230    3.2100   15.2160 C.3   276  INH276      0.2370
      3  C2        13.3360    2.3460   16.0820 C.3   276  INH276      0.2860
      4  C3        13.3240    3.8410   16.4350 C.3   276  INH276      0.0460
      5  C4        14.5130    4.4000   15.7010 C.3   276  INH276      0.0300
      6  C5        13.5960    2.9710   13.7660 C.3   276  INH276      0.2730
      7  C6        14.6650    0.9330   14.7760 C.3   276  INH276      0.2730
      8  C7        12.0160    1.7950   15.6490 C.2   276  INH276      0.1720
      9  O2        11.0250    2.1870   16.2990 O.2   276  INH276     -0.6480
     10  O1        11.9540    0.9730   14.6940 O.3   276  INH276     -0.7750
     11  H         11.1420    0.8380   14.2440 H     276  INH276      0.1670
@<TRIPOS>BOND
     1     6     1    1
     2    11    10    1
     3    10     8    1
     4     7     1    1
     5     1     2    1
     6     1     3    1
     7     2     5    1
     8     8     3    1
     9     8     9    2
    10     5     4    1
    11     3     4    1
