@<TRIPOS>MOLECULE
./ligand/2bys_lig.pdb
 53 55 0 0 0
SMALL
GASTEIGER

@<TRIPOS>ATOM
      1  O1        -5.8150   22.5840    6.1490 O.2   1046  INH1046    -0.2918
      2  C1        -5.8710   23.8000    6.0880 C.2   1046  INH1046     0.1685
      3  C2        -5.2930   24.6120    7.2290 C.ar  1046  INH1046     0.0176
      4  C3        -4.7700   23.9560    8.3510 C.ar  1046  INH1046    -0.0513
      5  C4        -4.2310   24.6830    9.4140 C.ar  1046  INH1046    -0.0611
      6  C5        -4.2090   26.0760    9.3730 C.ar  1046  INH1046    -0.0617
      7  C6        -4.7210   26.7400    8.2640 C.ar  1046  INH1046    -0.0611
      8  C7        -5.2540   26.0090    7.2010 C.ar  1046  INH1046    -0.0513
      9  C8        -6.4790   24.4100    4.8370 C.3   1046  INH1046     0.0535
     10  C9        -7.9930   24.2070    4.6420 C.3   1046  INH1046    -0.0137
     11  C10       -8.4510   22.7860    4.9150 C.3   1046  INH1046    -0.0090
     12  C11       -9.9070   22.6750    4.5290 C.3   1046  INH1046    -0.0429
     13  C12      -10.0290   22.7100    3.0170 C.3   1046  INH1046    -0.0094
     14  C13       -9.2690   23.8540    2.3380 C.3   1046  INH1046    -0.0182
     15  N1        -8.3160   24.5730    3.2340 N.4   1046  INH1046     0.2378
     16  C14       -8.3140   26.0140    3.0040 C.3   1046  INH1046    -0.0426
     17  C15       -8.4900   23.3200    1.1190 C.3   1046  INH1046     0.0205
     18  C16       -8.0770   24.4360    0.1550 C.3   1046  INH1046     0.0853
     19  O2        -6.7000   24.7440    0.3740 O.3   1046  INH1046    -0.3870
     20  C17       -8.2640   24.1150   -1.2910 C.ar  1046  INH1046    -0.0190
     21  C18       -7.8610   22.8970   -1.8380 C.ar  1046  INH1046    -0.0561
     22  C19       -8.0450   22.6310   -3.1970 C.ar  1046  INH1046    -0.0614
     23  C20       -8.6260   23.5850   -4.0310 C.ar  1046  INH1046    -0.0617
     24  C21       -9.0150   24.8120   -3.4920 C.ar  1046  INH1046    -0.0614
     25  C22       -8.8300   25.0750   -2.1340 C.ar  1046  INH1046    -0.0561
     26  H1        -4.7840   22.8730    8.3940 H     1046  INH1046     0.0624
     27  H2        -3.8280   24.1620   10.2750 H     1046  INH1046     0.0618
     28  H3        -3.7950   26.6390   10.2020 H     1046  INH1046     0.0618
     29  H4        -4.7060   27.8230    8.2250 H     1046  INH1046     0.0618
     30  H5        -5.6450   26.5350    6.3370 H     1046  INH1046     0.0624
     31  H6        -5.9680   23.9700    3.9680 H     1046  INH1046     0.0401
     32  H7        -6.2880   25.4930    4.8660 H     1046  INH1046     0.0401
     33  H8        -8.5290   24.8800    5.3270 H     1046  INH1046     0.0855
     34  H9        -8.3310   22.5550    5.9840 H     1046  INH1046     0.0320
     35  H10       -7.8530   22.0810    4.3180 H     1046  INH1046     0.0320
     36  H11      -10.4670   23.5170    4.9620 H     1046  INH1046     0.0269
     37  H12      -10.3170   21.7270    4.9090 H     1046  INH1046     0.0269
     38  H13      -11.0940   22.8080    2.7620 H     1046  INH1046     0.0320
     39  H14       -9.6430   21.7600    2.6200 H     1046  INH1046     0.0320
     40  H15      -10.0140   24.5830    1.9870 H     1046  INH1046     0.0852
     41  H16       -7.4500   24.2970    2.7980 H     1046  INH1046     0.2036
     42  H17       -7.5980   26.4930    3.6870 H     1046  INH1046     0.0778
     43  H18       -9.3210   26.4160    3.1880 H     1046  INH1046     0.0778
     44  H19       -8.0210   26.2190    1.9640 H     1046  INH1046     0.0778
     45  H20       -9.1270   22.6040    0.5790 H     1046  INH1046     0.0348
     46  H21       -7.5840   22.8080    1.4750 H     1046  INH1046     0.0348
     47  H22       -8.6860   25.3230    0.3860 H     1046  INH1046     0.0645
     48  H23       -6.4320   25.4360   -0.2190 H     1046  INH1046     0.2102
     49  H24       -7.4000   22.1490   -1.2020 H     1046  INH1046     0.0621
     50  H25       -7.7340   21.6760   -3.6060 H     1046  INH1046     0.0618
     51  H26       -8.7740   23.3760   -5.0840 H     1046  INH1046     0.0618
     52  H27       -9.4630   25.5640   -4.1310 H     1046  INH1046     0.0618
     53  H28       -9.1290   26.0350   -1.7290 H     1046  INH1046     0.0621
@<TRIPOS>BOND
     1    51    23    1
     2    52    24    1
     3    23    24   ar
     4    23    22   ar
     5    50    22    1
     6    24    25   ar
     7    22    21   ar
     8    25    53    1
     9    25    20   ar
    10    21    20   ar
    11    21    49    1
    12    20    18    1
    13    48    19    1
    14    18    19    1
    15    18    47    1
    16    18    17    1
    17    45    17    1
    18    17    46    1
    19    17    14    1
    20    44    16    1
    21    40    14    1
    22    14    13    1
    23    14    15    1
    24    39    13    1
    25    38    13    1
    26    41    15    1
    27    16    43    1
    28    16    15    1
    29    16    42    1
    30    13    12    1
    31    15    10    1
    32    31     9    1
    33    35    11    1
    34    12    37    1
    35    12    11    1
    36    12    36    1
    37    10     9    1
    38    10    11    1
    39    10    33    1
    40     9    32    1
    41     9     2    1
    42    11    34    1
    43     2     1    2
    44     2     3    1
    45    30     8    1
    46     8     3   ar
    47     8     7   ar
    48     3     4   ar
    49    29     7    1
    50     7     6   ar
    51     4    26    1
    52     4     5   ar
    53     6     5   ar
    54     6    28    1
    55     5    27    1
