@<TRIPOS>MOLECULE
/tmp/ewbell/vina_2bys_2bys_lig/vina/vina1.pdbqt
 27 29 0 0 0
SMALL
GASTEIGER

@<TRIPOS>ATOM
      1  C9        -8.0930   24.0590    4.6980 C.3   1046  INH1046     0.1950
      2  C10       -8.5920   22.6440    4.9290 C.3   1046  INH1046     0.0340
      3  C11      -10.0580   22.5950    4.5700 C.3   1046  INH1046     0.0040
      4  C12      -10.2090   22.6890    3.0630 C.3   1046  INH1046     0.0330
      5  C13       -9.4250   23.8320    2.4100 C.3   1046  INH1046     0.1910
      6  N1        -8.4310   24.4870    3.3110 N.4   1046  INH1046    -0.0660
      7  C14       -8.3870   25.9340    3.1330 C.3   1046  INH1046     0.2700
      8  H16       -7.5840   24.1990    2.8480 H     1046  INH1046     0.2800
      9  C15       -8.6880   23.3180    1.1570 C.3   1046  INH1046     0.0690
     10  C16       -8.3080   24.4500    0.1970 C.3   1046  INH1046     0.1530
     11  C17       -8.4390   24.1120   -1.2510 C.ar  1046  INH1046    -0.0300
     12  C22       -8.1110   22.8250   -1.6820 C.ar  1046  INH1046     0.0100
     13  C21       -8.2260   22.4710   -3.0280 C.ar  1046  INH1046     0.0010
     14  C20       -8.6810   23.4010   -3.9640 C.ar  1046  INH1046     0.0000
     15  C19       -9.0260   24.6820   -3.5340 C.ar  1046  INH1046     0.0010
     16  C18       -8.9100   25.0320   -2.1870 C.ar  1046  INH1046     0.0100
     17  O2        -6.9560   24.8310    0.4510 O.3   1046  INH1046    -0.3910
     18  H23       -6.8850   25.7780    0.4310 H     1046  INH1046     0.2100
     19  C8        -6.5700   24.2060    4.8690 C.3   1046  INH1046     0.1170
     20  C1        -5.9530   23.5000    6.0640 C.2   1046  INH1046     0.1610
     21  O1        -5.8890   22.2840    6.0250 O.2   1046  INH1046    -0.2920
     22  C2        -5.3760   24.2210    7.2660 C.ar  1046  INH1046     0.0100
     23  C7        -5.2660   25.6130    7.3130 C.ar  1046  INH1046     0.0150
     24  C6        -4.7350   26.2590    8.4320 C.ar  1046  INH1046     0.0010
     25  C5        -4.3000   25.5120    9.5210 C.ar  1046  INH1046     0.0000
     26  C4        -4.3940   24.1230    9.4870 C.ar  1046  INH1046     0.0010
     27  C3        -4.9290   23.4810    8.3690 C.ar  1046  INH1046     0.0150
@<TRIPOS>BOND
     1    14    15   ar
     2    14    13   ar
     3    15    16   ar
     4    13    12   ar
     5    16    11   ar
     6    12    11   ar
     7    11    10    1
     8    10    17    1
     9    10     9    1
    10    18    17    1
    11     9     5    1
    12     5     4    1
    13     5     6    1
    14     8     6    1
    15     4     3    1
    16     7     6    1
    17     6     1    1
    18     3     2    1
    19     1    19    1
    20     1     2    1
    21    19    20    1
    22    21    20    2
    23    20    22    1
    24    22    23   ar
    25    22    27   ar
    26    23    24   ar
    27    27    26   ar
    28    24    25   ar
    29    26    25   ar
