@<TRIPOS>MOLECULE
/tmp/ewbell/vina_2bys_2bys_lig/vina/vina4.pdbqt
 27 29 0 0 0
SMALL
GASTEIGER

@<TRIPOS>ATOM
      1  C9        -2.5390   13.2050   -3.9570 C.3   1046  INH1046     0.1950
      2  C10       -1.2700   12.4180   -3.6870 C.3   1046  INH1046     0.0340
      3  C11       -0.3000   12.6790   -4.8150 C.3   1046  INH1046     0.0040
      4  C12        0.2330   14.0940   -4.7010 C.3   1046  INH1046     0.0330
      5  C13       -0.8400   15.1720   -4.5130 C.3   1046  INH1046     0.1910
      6  N1        -2.1960   14.6360   -4.1950 N.4   1046  INH1046    -0.0660
      7  C14       -3.2590   15.3730   -4.8720 C.3   1046  INH1046     0.2700
      8  H16       -2.2830   14.9770   -3.2500 H     1046  INH1046     0.2800
      9  C15       -0.4200   16.1450   -3.3920 C.3   1046  INH1046     0.0690
     10  C16        0.9940   16.6950   -3.5950 C.3   1046  INH1046     0.1530
     11  C17        1.7380   16.9900   -2.3350 C.ar  1046  INH1046    -0.0300
     12  C22        1.1430   16.6880   -1.1070 C.ar  1046  INH1046     0.0100
     13  C21        1.8110   16.9450    0.0920 C.ar  1046  INH1046     0.0010
     14  C20        3.0910   17.5000    0.0800 C.ar  1046  INH1046     0.0000
     15  C19        3.6950   17.7860   -1.1440 C.ar  1046  INH1046     0.0010
     16  C18        3.0250   17.5280   -2.3420 C.ar  1046  INH1046     0.0100
     17  O2         0.9130   17.8960   -4.3620 O.3   1046  INH1046    -0.3910
     18  H23        0.0030   18.0940   -4.5460 H     1046  INH1046     0.2100
     19  C8        -3.5470   13.1580   -2.7950 C.3   1046  INH1046     0.1170
     20  C1        -3.1710   13.9290   -1.5420 C.2   1046  INH1046     0.1610
     21  O1        -3.5540   15.0830   -1.4570 O.2   1046  INH1046    -0.2920
     22  C2        -2.3930   13.3330   -0.3850 C.ar  1046  INH1046     0.0100
     23  C7        -2.8610   12.2290    0.3330 C.ar  1046  INH1046     0.0150
     24  C6        -2.1290   11.6920    1.3930 C.ar  1046  INH1046     0.0010
     25  C5        -0.9130   12.2630    1.7540 C.ar  1046  INH1046     0.0000
     26  C4        -0.4360   13.3700    1.0550 C.ar  1046  INH1046     0.0010
     27  C3        -1.1690   13.9010   -0.0070 C.ar  1046  INH1046     0.0150
@<TRIPOS>BOND
     1     7     6    1
     2     3     4    1
     3     3     2    1
     4     4     5    1
     5    18    17    1
     6     5     6    1
     7     5     9    1
     8    17    10    1
     9     6     1    1
    10     6     8    1
    11     1     2    1
    12     1    19    1
    13    10     9    1
    14    10    11    1
    15    19    20    1
    16    16    11   ar
    17    16    15   ar
    18    11    12   ar
    19    20    21    2
    20    20    22    1
    21    15    14   ar
    22    12    13   ar
    23    22    27   ar
    24    22    23   ar
    25    27    26   ar
    26    14    13   ar
    27    23    24   ar
    28    26    25   ar
    29    24    25   ar
