@<TRIPOS>MOLECULE
/tmp/ewbell/vina_2bys_2bys_lig/vina/vina5.pdbqt
 27 29 0 0 0
SMALL
GASTEIGER

@<TRIPOS>ATOM
      1  C9         2.7570   13.7010   -4.0770 C.3   1046  INH1046     0.1950
      2  C10        2.6270   13.9160   -2.5800 C.3   1046  INH1046     0.0340
      3  C11        3.2110   15.2680   -2.2430 C.3   1046  INH1046     0.0040
      4  C12        2.2840   16.3560   -2.7510 C.3   1046  INH1046     0.0330
      5  C13        1.8410   16.1920   -4.2090 C.3   1046  INH1046     0.1910
      6  N1         2.1610   14.8600   -4.8000 N.4   1046  INH1046    -0.0660
      7  C14        2.6070   14.9580   -6.1860 C.3   1046  INH1046     0.2700
      8  H16        1.2230   14.5080   -4.9140 H     1046  INH1046     0.2800
      9  C15        0.3220   16.4310   -4.3290 C.3   1046  INH1046     0.0690
     10  C16       -0.3830   16.4080   -2.9700 C.3   1046  INH1046     0.1530
     11  C17       -1.6130   15.5640   -2.9170 C.ar  1046  INH1046    -0.0300
     12  C22       -2.1710   15.2510   -1.6750 C.ar  1046  INH1046     0.0100
     13  C21       -3.3240   14.4690   -1.5870 C.ar  1046  INH1046     0.0010
     14  C20       -3.9440   13.9950   -2.7450 C.ar  1046  INH1046     0.0000
     15  C19       -3.3990   14.3200   -3.9860 C.ar  1046  INH1046     0.0010
     16  C18       -2.2460   15.1030   -4.0710 C.ar  1046  INH1046     0.0100
     17  O2        -0.7380   17.7440   -2.6150 O.3   1046  INH1046    -0.3910
     18  H23       -0.8210   18.2700   -3.4010 H     1046  INH1046     0.2100
     19  C8         2.0470   12.4290   -4.5760 C.3   1046  INH1046     0.1170
     20  C1         0.5300   12.4750   -4.6200 C.2   1046  INH1046     0.1610
     21  O1         0.0110   12.9240   -5.6280 O.2   1046  INH1046    -0.2920
     22  C2        -0.3640   11.9570   -3.5110 C.ar  1046  INH1046     0.0100
     23  C7        -0.0820   12.1880   -2.1620 C.ar  1046  INH1046     0.0150
     24  C6        -0.9200   11.7050   -1.1550 C.ar  1046  INH1046     0.0010
     25  C5        -2.0550   10.9730   -1.4890 C.ar  1046  INH1046     0.0000
     26  C4        -2.3450   10.7260   -2.8290 C.ar  1046  INH1046     0.0010
     27  C3        -1.5080   11.2140   -3.8330 C.ar  1046  INH1046     0.0150
@<TRIPOS>BOND
     1     7     6    1
     2    21    20    2
     3     8     6    1
     4     6     5    1
     5     6     1    1
     6    20    19    1
     7    20    22    1
     8    19     1    1
     9     9     5    1
    10     9    10    1
    11     5     4    1
    12     1     2    1
    13    16    15   ar
    14    16    11   ar
    15    15    14   ar
    16    27    22   ar
    17    27    26   ar
    18    22    23   ar
    19    18    17    1
    20    10    11    1
    21    10    17    1
    22    11    12   ar
    23    26    25   ar
    24     4     3    1
    25    14    13   ar
    26     2     3    1
    27    23    24   ar
    28    12    13   ar
    29    25    24   ar
