@<TRIPOS>MOLECULE
/tmp/ewbell/vina_2bys_2bys_lig/vina/vina2.pdbqt
 27 29 0 0 0
SMALL
GASTEIGER

@<TRIPOS>ATOM
      1  C9        -7.5570   24.5350    4.9460 C.3   1046  INH1046     0.1950
      2  C10       -7.7530   23.0780    5.3230 C.3   1046  INH1046     0.0340
      3  C11       -9.2080   22.7270    5.1150 C.3   1046  INH1046     0.0040
      4  C12       -9.5000   22.6600    3.6280 C.3   1046  INH1046     0.0330
      5  C13       -9.0080   23.8670    2.8230 C.3   1046  INH1046     0.1910
      6  N1        -8.0870   24.7700    3.5730 N.4   1046  INH1046    -0.0660
      7  C14       -8.3360   26.1800    3.2910 C.3   1046  INH1046     0.2700
      8  H16       -7.2420   24.6050    3.0490 H     1046  INH1046     0.2800
      9  C15       -8.2950   23.3920    1.5410 C.3   1046  INH1046     0.0690
     10  C16       -9.2190   23.4010    0.3200 C.3   1046  INH1046     0.1530
     11  C17       -8.6720   24.1110   -0.8730 C.ar  1046  INH1046    -0.0300
     12  C22       -8.1650   25.4040   -0.7230 C.ar  1046  INH1046     0.0100
     13  C21       -7.6410   26.0980   -1.8150 C.ar  1046  INH1046     0.0010
     14  C20       -7.6060   25.5020   -3.0770 C.ar  1046  INH1046     0.0000
     15  C19       -8.0960   24.2050   -3.2270 C.ar  1046  INH1046     0.0010
     16  C18       -8.6190   23.5140   -2.1330 C.ar  1046  INH1046     0.0100
     17  O2       -10.4540   24.0160    0.6850 O.3   1046  INH1046    -0.3910
     18  H23      -11.0940   23.3460    0.8900 H     1046  INH1046     0.2100
     19  C8        -6.0810   24.9750    4.9540 C.3   1046  INH1046     0.1170
     20  C1        -5.4230   25.1060    6.3170 C.2   1046  INH1046     0.1610
     21  O1        -5.4100   26.2120    6.8290 O.2   1046  INH1046    -0.2920
     22  C2        -4.8320   23.9410    7.0850 C.ar  1046  INH1046     0.0100
     23  C7        -3.9990   24.1280    8.1910 C.ar  1046  INH1046     0.0150
     24  C6        -3.4660   23.0420    8.8880 C.ar  1046  INH1046     0.0010
     25  C5        -3.7590   21.7450    8.4780 C.ar  1046  INH1046     0.0000
     26  C4        -4.5800   21.5410    7.3710 C.ar  1046  INH1046     0.0010
     27  C3        -5.1140   22.6300    6.6800 C.ar  1046  INH1046     0.0150
@<TRIPOS>BOND
     1    15    14   ar
     2    15    16   ar
     3    14    13   ar
     4    16    11   ar
     5    13    12   ar
     6    11    12   ar
     7    11    10    1
     8    10    17    1
     9    10     9    1
    10    17    18    1
    11     9     5    1
    12     5     6    1
    13     5     4    1
    14     8     6    1
    15     7     6    1
    16     6     1    1
    17     4     3    1
    18     1    19    1
    19     1     2    1
    20    19    20    1
    21     3     2    1
    22    20    21    2
    23    20    22    1
    24    27    22   ar
    25    27    26   ar
    26    22    23   ar
    27    26    25   ar
    28    23    24   ar
    29    25    24   ar
