@<TRIPOS>MOLECULE
/tmp/ewbell/vina_2bys_2bys_lig/vina/vina3.pdbqt
 27 29 0 0 0
SMALL
GASTEIGER

@<TRIPOS>ATOM
      1  C9        -5.9370   23.4680    6.1080 C.3   1046  INH1046     0.1950
      2  C10       -5.7080   22.3760    7.1360 C.3   1046  INH1046     0.0340
      3  C11       -4.2210   22.2500    7.3700 C.3   1046  INH1046     0.0040
      4  C12       -3.7320   23.4570    8.1490 C.3   1046  INH1046     0.0330
      5  C13       -4.1830   24.8090    7.5860 C.3   1046  INH1046     0.1910
      6  N1        -5.2460   24.7150    6.5420 N.4   1046  INH1046    -0.0660
      7  C14       -5.0440   25.6640    5.4530 C.3   1046  INH1046     0.2700
      8  H16       -6.0040   25.1450    7.0490 H     1046  INH1046     0.2800
      9  C15       -4.6930   25.7130    8.7270 C.3   1046  INH1046     0.0690
     10  C16       -3.9470   27.0490    8.7910 C.3   1046  INH1046     0.1530
     11  C17       -4.2870   27.8980    9.9710 C.ar  1046  INH1046    -0.0300
     12  C22       -3.9620   27.4450   11.2520 C.ar  1046  INH1046     0.0100
     13  C21       -4.2590   28.2150   12.3780 C.ar  1046  INH1046     0.0010
     14  C20       -4.8790   29.4580   12.2390 C.ar  1046  INH1046     0.0000
     15  C19       -5.1880   29.9210   10.9600 C.ar  1046  INH1046     0.0010
     16  C18       -4.8890   29.1490    9.8360 C.ar  1046  INH1046     0.0100
     17  O2        -4.2330   27.7900    7.6060 O.3   1046  INH1046    -0.3910
     18  H23       -3.9950   28.7010    7.7360 H     1046  INH1046     0.2100
     19  C8        -7.4240   23.8120    5.9020 C.3   1046  INH1046     0.1170
     20  C1        -8.1340   23.0880    4.7710 C.2   1046  INH1046     0.1610
     21  O1        -8.5000   21.9440    4.9790 O.2   1046  INH1046    -0.2920
     22  C2        -8.4500   23.7200    3.4300 C.ar  1046  INH1046     0.0100
     23  C7        -9.0080   22.9890    2.3780 C.ar  1046  INH1046     0.0150
     24  C6        -9.2960   23.5900    1.1510 C.ar  1046  INH1046     0.0010
     25  C5        -9.0200   24.9400    0.9600 C.ar  1046  INH1046     0.0000
     26  C4        -8.4550   25.6810    1.9950 C.ar  1046  INH1046     0.0010
     27  C3        -8.1730   25.0780    3.2210 C.ar  1046  INH1046     0.0150
@<TRIPOS>BOND
     1    25    24   ar
     2    25    26   ar
     3    24    23   ar
     4    26    27   ar
     5    23    22   ar
     6    27    22   ar
     7    22    20    1
     8    20    21    2
     9    20    19    1
    10     7     6    1
    11    19     1    1
    12     1     6    1
    13     1     2    1
    14     6     8    1
    15     6     5    1
    16     2     3    1
    17     3     4    1
    18     5     4    1
    19     5     9    1
    20    17    18    1
    21    17    10    1
    22     9    10    1
    23    10    11    1
    24    16    11   ar
    25    16    15   ar
    26    11    12   ar
    27    15    14   ar
    28    12    13   ar
    29    14    13   ar
