@<TRIPOS>MOLECULE
./ligand/1txf_lig.pdb
 18 17 0 0 0
SMALL
GASTEIGER

@<TRIPOS>ATOM
      1  N1        20.5150   -0.8510   10.8190 N.4   251  INH251      0.2289
      2  C1        21.6640   -1.7870   10.7210 C.3   251  INH251      0.0790
      3  C2        21.2110   -3.1880   10.3350 C.2   251  INH251      0.4026
      4  O1        22.0480   -4.1110   10.4270 O.co2 251  INH251     -0.2400
      5  C3        22.4030   -1.8480   12.0530 C.3   251  INH251      0.0111
      6  C4        23.1850   -0.5990   12.3960 C.3   251  INH251      0.0548
      7  C5        24.3750   -0.3790   11.4830 C.2   251  INH251      0.3562
      8  O2        24.9450   -1.3820   10.9990 O.co2 251  INH251     -0.2464
      9  O3        24.7550    0.7950   11.2570 O.co2 251  INH251     -0.2464
     10  O4        20.0350   -3.3520    9.9480 O.co2 251  INH251     -0.2400
     11  H1        20.8490    0.0650   11.0750 H     251  INH251      0.2002
     12  H2        19.8710   -1.1820   11.5200 H     251  INH251      0.2002
     13  H3        20.0460   -0.8000    9.9280 H     251  INH251      0.2002
     14  H4        22.3520   -1.4140    9.9480 H     251  INH251      0.0970
     15  H5        23.1050   -2.6940   12.0170 H     251  INH251      0.0331
     16  H6        21.6630   -2.0190   12.8490 H     251  INH251      0.0331
     17  H7        23.5480   -0.6850   13.4310 H     251  INH251      0.0381
     18  H8        22.5140    0.2690   12.3140 H     251  INH251      0.0381
@<TRIPOS>BOND
     1     1    12    1
     2     1    11    1
     3     1     2    1
     4     1    13    1
     5     2     5    1
     6     2     3    1
     7     2    14    1
     8     3     4   ar
     9     3    10   ar
    10     5    16    1
    11     5     6    1
    12     5    15    1
    13     6    17    1
    14     6    18    1
    15     6     7    1
    16     7     9   ar
    17     7     8   ar
