@<TRIPOS>MOLECULE
/tmp/ewbell/vina_1txf_1txf_lig/vina/vina4.pdbqt
 15 14 0 0 0
SMALL
GASTEIGER

@<TRIPOS>ATOM
      1  C1        24.3330   -0.5410   12.4640 C.3   251  INH251      0.2800
      2  N1        25.6810    0.0010   12.1530 N.4   251  INH251     -0.0650
      3  H2        25.5870    0.8510   11.6190 H     251  INH251      0.2750
      4  H1        26.1710    0.1960   13.0120 H     251  INH251      0.2750
      5  H3        26.2000   -0.6770   11.6170 H     251  INH251      0.2750
      6  C3        23.3920    0.5930   12.8560 C.3   251  INH251      0.0540
      7  C4        22.2730    0.1880   13.7900 C.3   251  INH251      0.1120
      8  C5        21.2080    1.2560   13.9320 C.2   251  INH251      0.1390
      9  O3        20.1080    0.9490   14.4520 O.2   251  INH251     -0.6500
     10  O2        21.4720    2.4130   13.5350 O.3   251  INH251     -0.7760
     11  H         22.3090    2.7920   13.7180 H     251  INH251      0.1670
     12  C2        23.7460   -1.2910   11.2770 C.2   251  INH251      0.1710
     13  O1        23.9970   -0.8510   10.1350 O.2   251  INH251     -0.6480
     14  O4        23.0480   -2.3030   11.4940 O.3   251  INH251     -0.7750
     15  H         22.1530   -2.3250   11.2130 H     251  INH251      0.1670
@<TRIPOS>BOND
     1    13    12    2
     2    15    14    1
     3    12    14    1
     4    12     1    1
     5     5     2    1
     6     3     2    1
     7     2     1    1
     8     2     4    1
     9     1     6    1
    10     6     7    1
    11    10    11    1
    12    10     8    1
    13     7     8    1
    14     8     9    2
