@<TRIPOS>MOLECULE
/tmp/ewbell/vina_1txf_1txf_lig/vina/vina3.pdbqt
 15 14 0 0 0
SMALL
GASTEIGER

@<TRIPOS>ATOM
      1  C1        23.9440    0.9860   12.5170 C.3   251  INH251      0.2800
      2  N1        24.1490    0.0950   11.3460 N.4   251  INH251     -0.0650
      3  H2        25.1300    0.0600   11.1190 H     251  INH251      0.2750
      4  H1        23.8220   -0.8320   11.5680 H     251  INH251      0.2750
      5  H3        23.6330    0.4530   10.5570 H     251  INH251      0.2750
      6  C3        23.4250    0.1790   13.7020 C.3   251  INH251      0.0540
      7  C4        21.9450    0.3390   13.9710 C.3   251  INH251      0.1120
      8  C5        21.5430    1.7780   14.2250 C.2   251  INH251      0.1390
      9  O3        22.0590    2.3900   15.1910 O.2   251  INH251     -0.6500
     10  O2        20.7180    2.3080   13.4480 O.3   251  INH251     -0.7760
     11  H         20.8210    2.2180   12.5220 H     251  INH251      0.1670
     12  C2        25.2340    1.6880   12.9160 C.2   251  INH251      0.1710
     13  O1        25.2860    2.1930   14.0570 O.2   251  INH251     -0.6480
     14  O4        26.1730    1.7290   12.0940 O.3   251  INH251     -0.7750
     15  H         25.9930    1.8460   11.1810 H     251  INH251      0.1670
@<TRIPOS>BOND
     1     5     2    1
     2     3     2    1
     3    15    14    1
     4     2     4    1
     5     2     1    1
     6    14    12    1
     7     1    12    1
     8     1     6    1
     9    11    10    1
    10    12    13    2
    11    10     8    1
    12     6     7    1
    13     7     8    1
    14     8     9    2
