@<TRIPOS>MOLECULE
/tmp/ewbell/vina_1txf_1txf_lig/vina/vina5.pdbqt
 15 14 0 0 0
SMALL
GASTEIGER

@<TRIPOS>ATOM
      1  C1        22.3710   -0.5140   12.2530 C.3   251  INH251      0.2800
      2  N1        21.4360   -0.0680   13.3180 N.4   251  INH251     -0.0650
      3  H2        20.5580    0.2030   12.9030 H     251  INH251      0.2750
      4  H1        21.2820   -0.8230   13.9680 H     251  INH251      0.2750
      5  H3        21.8340    0.7190   13.8070 H     251  INH251      0.2750
      6  C3        23.6340   -1.0960   12.8780 C.3   251  INH251      0.0540
      7  C4        24.9140   -0.3990   12.4720 C.3   251  INH251      0.1120
      8  C5        24.9000    1.0850   12.7780 C.2   251  INH251      0.1390
      9  O3        25.0380    1.9000   11.8330 O.2   251  INH251     -0.6500
     10  O2        24.7380    1.4440   13.9660 O.3   251  INH251     -0.7760
     11  H         25.4720    1.4920   14.5450 H     251  INH251      0.1670
     12  C2        21.7300   -1.5600   11.3520 C.2   251  INH251      0.1710
     13  O1        22.3860   -2.5960   11.1150 O.2   251  INH251     -0.6480
     14  O4        20.5900   -1.3390   10.8940 O.3   251  INH251     -0.7750
     15  H         20.4880   -1.0510   10.0070 H     251  INH251      0.1670
@<TRIPOS>BOND
     1    15    14    1
     2    14    12    1
     3    13    12    2
     4    12     1    1
     5     9     8    2
     6     1     6    1
     7     1     2    1
     8     7     8    1
     9     7     6    1
    10     8    10    1
    11     3     2    1
    12     2     5    1
    13     2     4    1
    14    10    11    1
