@<TRIPOS>MOLECULE
/tmp/ewbell/vina_1txf_1txf_lig/vina/vina2.pdbqt
 15 14 0 0 0
SMALL
GASTEIGER

@<TRIPOS>ATOM
      1  C1        23.5490    1.5690   13.1030 C.3   251  INH251      0.2800
      2  N1        24.7660    2.1510   13.7230 N.4   251  INH251     -0.0650
      3  H2        25.2410    1.4430   14.2600 H     251  INH251      0.2750
      4  H1        25.3800    2.4940   13.0010 H     251  INH251      0.2750
      5  H3        24.5030    2.9130   14.3290 H     251  INH251      0.2750
      6  C3        23.6410    0.0470   13.1020 C.3   251  INH251      0.0540
      7  C4        22.5250   -0.6500   12.3550 C.3   251  INH251      0.1120
      8  C5        23.0010   -1.3420   11.0940 C.2   251  INH251      0.1390
      9  O3        22.5410   -2.4750   10.8140 O.2   251  INH251     -0.6500
     10  O2        23.8290   -0.7470   10.3680 O.3   251  INH251     -0.7760
     11  H         23.6590   -0.6410    9.4540 H     251  INH251      0.1670
     12  C2        22.2880    1.9940   13.8420 C.2   251  INH251      0.1710
     13  O1        22.1970    1.6890   15.0510 O.2   251  INH251     -0.6480
     14  O4        21.4090    2.6210   13.2160 O.3   251  INH251     -0.7750
     15  H         20.5020    2.4720   13.4030 H     251  INH251      0.1670
@<TRIPOS>BOND
     1    11    10    1
     2    10     8    1
     3     9     8    2
     4     8     7    1
     5     7     6    1
     6     4     2    1
     7     6     1    1
     8     1     2    1
     9     1    12    1
    10    14    15    1
    11    14    12    1
    12     2     3    1
    13     2     5    1
    14    12    13    2
