@<TRIPOS>MOLECULE
/tmp/ewbell/vina_1txf_1txf_lig/vina/vina1.pdbqt
 15 14 0 0 0
SMALL
GASTEIGER

@<TRIPOS>ATOM
      1  C1        21.6360    0.4890   13.8650 C.3   251  INH251      0.2800
      2  N1        20.4730    0.0920   13.0310 N.4   251  INH251     -0.0650
      3  H2        20.6270   -0.8310   12.6560 H     251  INH251      0.2750
      4  H1        19.6390    0.0890   13.5970 H     251  INH251      0.2750
      5  H3        20.3620    0.7480   12.2740 H     251  INH251      0.2750
      6  C3        22.9350    0.1060   13.1640 C.3   251  INH251      0.0540
      7  C4        22.9280   -1.2680   12.5310 C.3   251  INH251      0.1120
      8  C5        22.9170   -1.2190   11.0160 C.2   251  INH251      0.1390
      9  O3        24.0110   -1.1410   10.4050 O.2   251  INH251     -0.6500
     10  O2        21.8140   -1.2720   10.4290 O.3   251  INH251     -0.7760
     11  H         21.5560   -2.0550    9.9860 H     251  INH251      0.1670
     12  C2        21.6380    1.9850   14.1420 C.2   251  INH251      0.1710
     13  O1        21.2960    2.7450   13.2110 O.2   251  INH251     -0.6480
     14  O4        21.9780    2.3840   15.2760 O.3   251  INH251     -0.7750
     15  H         21.5870    3.1550   15.6390 H     251  INH251      0.1670
@<TRIPOS>BOND
     1    11    10    1
     2     9     8    2
     3    10     8    1
     4     8     7    1
     5     5     2    1
     6     7     6    1
     7     3     2    1
     8     2     4    1
     9     2     1    1
    10     6     1    1
    11    13    12    2
    12     1    12    1
    13    12    14    1
    14    14    15    1
