@<TRIPOS>MOLECULE
./ligand/1h46_lig.pdb
 41 42 0 0 0
SMALL
GASTEIGER

@<TRIPOS>ATOM
      1  C1         3.9310    9.0750   25.8320 C.ar  433  INH433      0.1283
      2  C2         4.0120    9.7700   24.6360 C.ar  433  INH433     -0.0193
      3  C3         3.4940   11.0710   24.5410 C.ar  433  INH433     -0.0577
      4  C4         2.8940   11.7180   25.6300 C.ar  433  INH433     -0.0538
      5  C5         2.2160   11.6720   27.9920 C.ar  433  INH433     -0.0539
      6  C6         2.1610   10.9560   29.1890 C.ar  433  INH433     -0.0612
      7  C7         2.6580    9.6600   29.3120 C.ar  433  INH433     -0.0611
      8  C8         3.2460    9.0320   28.2190 C.ar  433  INH433     -0.0505
      9  C9         3.3220    9.7170   27.0170 C.ar  433  INH433      0.0238
     10  C10        2.7870   11.0870   26.8670 C.ar  433  INH433     -0.0144
     11  O1         4.4140    7.8060   25.9980 O.3   433  INH433     -0.4886
     12  C11        5.1050    7.1650   24.8980 C.3   433  INH433      0.1204
     13  C12        5.7800    5.8750   25.3090 C.3   433  INH433      0.1285
     14  O2         6.3770    6.0290   26.6000 O.3   433  INH433     -0.3831
     15  C13        6.8660    5.5380   24.3220 C.3   433  INH433     -0.0035
     16  N1         7.2460    4.2580   24.2600 N.4   433  INH433      0.2307
     17  C14        7.1920    3.3470   25.4010 C.3   433  INH433     -0.0283
     18  C15        6.8380    1.9490   24.8980 C.3   433  INH433     -0.0219
     19  C16        8.5500    3.2940   26.0960 C.3   433  INH433     -0.0219
     20  H1         4.4760    9.3080   23.7720 H     433  INH433      0.0654
     21  H2         3.5600   11.5930   23.5930 H     433  INH433      0.0619
     22  H3         2.5080   12.7230   25.5080 H     433  INH433      0.0624
     23  H4         1.8160   12.6780   27.9400 H     433  INH433      0.0624
     24  H5         1.7140   11.4270   30.0570 H     433  INH433      0.0618
     25  H6         2.5860    9.1400   30.2610 H     433  INH433      0.0618
     26  H7         3.6380    8.0250   28.3060 H     433  INH433      0.0625
     27  H8         5.8690    7.8550   24.5120 H     433  INH433      0.0725
     28  H9         4.3760    6.9440   24.1050 H     433  INH433      0.0725
     29  H10        5.0370    5.0640   25.3370 H     433  INH433      0.0681
     30  H11        7.0180    6.7300   26.5710 H     433  INH433      0.2102
     31  H12        7.7510    6.1360   24.5840 H     433  INH433      0.0841
     32  H13        6.4280    3.6920   26.1130 H     433  INH433      0.0845
     33  H14        6.7940    1.2530   25.7490 H     433  INH433      0.0284
     34  H15        7.6050    1.6100   24.1860 H     433  INH433      0.0284
     35  H16        5.8590    1.9770   24.3960 H     433  INH433      0.0284
     36  H17        8.4970    2.6060   26.9520 H     433  INH433      0.0284
     37  H18        8.8200    4.3000   26.4500 H     433  INH433      0.0284
     38  H19        9.3120    2.9380   25.3860 H     433  INH433      0.0284
     39  H20        6.5100    5.8280   23.3230 H     433  INH433      0.0841
     40  H21        8.2090    4.2700   23.9620 H     433  INH433      0.2017
     41  H22        6.6780    3.8360   23.5430 H     433  INH433      0.2017
@<TRIPOS>BOND
     1     1     9   ar
     2     1    11    1
     3     1     2   ar
     4     2    20    1
     5     2     3   ar
     6     3    21    1
     7     3     4   ar
     8     4    22    1
     9     4    10   ar
    10     5    23    1
    11     5    10   ar
    12     5     6   ar
    13     6    24    1
    14     6     7   ar
    15     7    25    1
    16     7     8   ar
    17     8    26    1
    18     8     9   ar
    19     9    10   ar
    20    11    12    1
    21    12    28    1
    22    12    27    1
    23    12    13    1
    24    13    29    1
    25    13    15    1
    26    13    14    1
    27    14    30    1
    28    15    39    1
    29    15    31    1
    30    15    16    1
    31    16    41    1
    32    16    40    1
    33    16    17    1
    34    17    32    1
    35    17    19    1
    36    17    18    1
    37    18    35    1
    38    18    34    1
    39    18    33    1
    40    19    38    1
    41    19    37    1
    42    19    36    1
