@<TRIPOS>MOLECULE
/tmp/ewbell/vina_1h46_1h46_lig/vina/vina1.pdbqt
 22 23 0 0 0
SMALL
GASTEIGER

@<TRIPOS>ATOM
      1  O1         2.8100   11.0790   22.6460 O.3   433  INH433     -0.3480
      2  C1         2.8360   10.9040   24.0020 C.ar  433  INH433      0.0800
      3  C9         3.5190    9.6920   24.5060 C.ar  433  INH433      0.0070
      4  C8         4.0810    8.7890   23.6170 C.ar  433  INH433      0.0150
      5  C10        3.5600    9.4740   25.9680 C.ar  433  INH433     -0.0230
      6  C7         4.7070    7.6540   24.1230 C.ar  433  INH433      0.0010
      7  C6         4.7640    7.4420   25.4980 C.ar  433  INH433      0.0010
      8  C5         4.2040    8.3270   26.4200 C.ar  433  INH433      0.0120
      9  C4         2.9730   10.4210   26.8040 C.ar  433  INH433      0.0120
     10  C3         2.3510   11.5600   26.2770 C.ar  433  INH433      0.0040
     11  C2         2.2850   11.8070   24.8970 C.ar  433  INH433      0.0370
     12  C11        2.5970   12.4070   22.1100 C.3   433  INH433      0.2090
     13  C12        2.2380   12.3900   20.6400 C.3   433  INH433      0.1680
     14  C13        2.2210   10.9690   20.1430 C.3   433  INH433      0.2660
     15  N1         1.0440   10.3360   20.1700 N.4   433  INH433     -0.0690
     16  H22        0.4650   10.8580   20.8080 H     433  INH433      0.2770
     17  H21        0.6690   10.4110   19.2370 H     433  INH433      0.2770
     18  C14        0.8940    8.9330   20.5500 C.3   433  INH433      0.1780
     19  C16        2.2210    8.1980   20.3780 C.3   433  INH433      0.0390
     20  C15       -0.1510    8.2870   19.6440 C.3   433  INH433      0.0390
     21  O2         0.9330   12.9480   20.4530 O.3   433  INH433     -0.3920
     22  H11        0.9450   13.8670   20.6910 H     433  INH433      0.2100
@<TRIPOS>BOND
     1    17    15    1
     2    20    18    1
     3    14    15    1
     4    14    13    1
     5    15    18    1
     6    15    16    1
     7    19    18    1
     8    21    13    1
     9    21    22    1
    10    13    12    1
    11    12     1    1
    12     1     2    1
    13     4     6   ar
    14     4     3   ar
    15     2     3   ar
    16     2    11   ar
    17     6     7   ar
    18     3     5   ar
    19    11    10   ar
    20     7     8   ar
    21     5     8   ar
    22     5     9   ar
    23    10     9   ar
