@<TRIPOS>MOLECULE
/tmp/ewbell/vina_1h46_1h46_lig/vina/vina2.pdbqt
 22 23 0 0 0
SMALL
GASTEIGER

@<TRIPOS>ATOM
      1  O1         5.2490    7.9730   23.5630 O.3   433  INH433     -0.3480
      2  C1         4.2790    8.3590   22.6790 C.ar  433  INH433      0.0800
      3  C9         3.4530    9.5250   23.0640 C.ar  433  INH433      0.0070
      4  C8         3.6680   10.1610   24.2760 C.ar  433  INH433      0.0150
      5  C10        2.3940    9.9650   22.1310 C.ar  433  INH433     -0.0230
      6  C7         2.8670   11.2480   24.6130 C.ar  433  INH433      0.0010
      7  C6         1.8740   11.6810   23.7380 C.ar  433  INH433      0.0010
      8  C5         1.6270   11.0600   22.5130 C.ar  433  INH433      0.0120
      9  C4         2.2310    9.2790   20.9300 C.ar  433  INH433      0.0120
     10  C3         3.0500    8.1900   20.6060 C.ar  433  INH433      0.0040
     11  C2         4.0650    7.7350   21.4610 C.ar  433  INH433      0.0370
     12  C11        5.4330    6.5620   23.8350 C.3   433  INH433      0.2090
     13  C12        6.7040    6.2800   24.6050 C.3   433  INH433      0.1680
     14  C13        6.5180    5.0470   25.4490 C.3   433  INH433      0.2660
     15  N1         6.9170    3.8880   24.9160 N.4   433  INH433     -0.0690
     16  H22        6.1370    3.5510   24.3740 H     433  INH433      0.2770
     17  H21        7.6820    4.1160   24.3000 H     433  INH433      0.2770
     18  C14        7.3700    2.7500   25.7140 C.3   433  INH433      0.1780
     19  C16        6.5090    1.5250   25.4180 C.3   433  INH433      0.0390
     20  C15        7.2390    3.1030   27.1940 C.3   433  INH433      0.0390
     21  O2         7.7810    6.0430   23.6940 O.3   433  INH433     -0.3920
     22  H11        7.5090    6.2770   22.8140 H     433  INH433      0.2100
@<TRIPOS>BOND
     1    10     9   ar
     2    10    11   ar
     3     9     5   ar
     4    11     2   ar
     5     5     8   ar
     6     5     3   ar
     7     8     7   ar
     8     2     3   ar
     9     2     1    1
    10    22    21    1
    11     3     4   ar
    12     1    12    1
    13    21    13    1
    14     7     6   ar
    15    12    13    1
    16     4     6   ar
    17    17    15    1
    18    16    15    1
    19    13    14    1
    20    15    14    1
    21    15    18    1
    22    19    18    1
    23    18    20    1
