@<TRIPOS>MOLECULE
/tmp/ewbell/vina_1h46_1h46_lig/vina/vina4.pdbqt
 22 23 0 0 0
SMALL
GASTEIGER

@<TRIPOS>ATOM
      1  O1         5.0370    7.8610   23.6930 O.3   433  INH433     -0.3480
      2  C1         4.1630    8.3310   22.7520 C.ar  433  INH433      0.0800
      3  C9         3.3510    9.5100   23.1240 C.ar  433  INH433      0.0070
      4  C8         3.4850   10.0780   24.3820 C.ar  433  INH433      0.0150
      5  C10        2.3940   10.0390   22.1290 C.ar  433  INH433     -0.0230
      6  C7         2.7000   11.1810   24.7050 C.ar  433  INH433      0.0010
      7  C6         1.8030   11.6960   23.7720 C.ar  433  INH433      0.0010
      8  C5         1.6400   11.1460   22.5000 C.ar  433  INH433      0.0120
      9  C4         2.3100    9.4180   20.8850 C.ar  433  INH433      0.0120
     10  C3         3.1120    8.3120   20.5760 C.ar  433  INH433      0.0040
     11  C2         4.0310    7.7750   21.4890 C.ar  433  INH433      0.0370
     12  C11        5.6380    6.5560   23.5080 C.3   433  INH433      0.2090
     13  C12        6.8460    6.3430   24.3930 C.3   433  INH433      0.1680
     14  C13        6.6910    5.0540   25.1560 C.3   433  INH433      0.2660
     15  N1         5.9890    5.1080   26.2910 N.4   433  INH433     -0.0690
     16  H22        5.0210    5.0220   26.0220 H     433  INH433      0.2770
     17  H21        6.2630    4.2980   26.8250 H     433  INH433      0.2770
     18  C14        6.0460    6.2360   27.2190 C.3   433  INH433      0.1780
     19  C16        6.3580    5.7410   28.6290 C.3   433  INH433      0.0390
     20  C15        4.6890    6.9350   27.2280 C.3   433  INH433      0.0390
     21  O2         8.0270    6.2510   23.5890 O.3   433  INH433     -0.3920
     22  H11        8.7540    5.9620   24.1270 H     433  INH433      0.2100
@<TRIPOS>BOND
     1    10     9   ar
     2    10    11   ar
     3     9     5   ar
     4    11     2   ar
     5     5     8   ar
     6     5     3   ar
     7     8     7   ar
     8     2     3   ar
     9     2     1    1
    10     3     4   ar
    11    12     1    1
    12    12    13    1
    13    21    22    1
    14    21    13    1
    15     7     6   ar
    16     4     6   ar
    17    13    14    1
    18    14    15    1
    19    16    15    1
    20    15    17    1
    21    15    18    1
    22    18    20    1
    23    18    19    1
