@<TRIPOS>MOLECULE
/tmp/ewbell/vina_1h46_1h46_lig/vina/vina5.pdbqt
 22 23 0 0 0
SMALL
GASTEIGER

@<TRIPOS>ATOM
      1  O1         2.3120   11.2040   23.6880 O.3   433  INH433     -0.3480
      2  C1         2.9680   10.2500   24.4160 C.ar  433  INH433      0.0800
      3  C9         2.8920   10.3650   25.8890 C.ar  433  INH433      0.0070
      4  C8         2.1930   11.4110   26.4710 C.ar  433  INH433      0.0150
      5  C10        3.5940    9.3510   26.7030 C.ar  433  INH433     -0.0230
      6  C7         2.1490   11.4970   27.8590 C.ar  433  INH433      0.0010
      7  C6         2.7960   10.5410   28.6380 C.ar  433  INH433      0.0010
      8  C5         3.5120    9.4780   28.0850 C.ar  433  INH433      0.0120
      9  C4         4.2800    8.3260   26.0540 C.ar  433  INH433      0.0120
     10  C3         4.3090    8.2540   24.6550 C.ar  433  INH433      0.0040
     11  C2         3.6600    9.1960   23.8420 C.ar  433  INH433      0.0370
     12  C11        3.0840   12.1680   22.9310 C.3   433  INH433      0.2090
     13  C12        2.2470   12.9120   21.9140 C.3   433  INH433      0.1680
     14  C13        2.1150   12.0800   20.6660 C.3   433  INH433      0.2660
     15  N1         2.7360   10.8960   20.6640 N.4   433  INH433     -0.0690
     16  H22        3.5420   11.0080   20.0700 H     433  INH433      0.2770
     17  H21        3.0360   10.7410   21.6140 H     433  INH433      0.2770
     18  C14        2.0950    9.6540   20.2380 C.3   433  INH433      0.1780
     19  C16        0.8730    9.3680   21.1080 C.3   433  INH433      0.0390
     20  C15        3.0920    8.5080   20.3940 C.3   433  INH433      0.0390
     21  O2         0.9370   13.1450   22.4400 O.3   433  INH433     -0.3920
     22  H11        0.3380   13.3350   21.7260 H     433  INH433      0.2100
@<TRIPOS>BOND
     1    16    15    1
     2    18    20    1
     3    18    15    1
     4    18    19    1
     5    15    14    1
     6    15    17    1
     7    14    13    1
     8    22    21    1
     9    13    21    1
    10    13    12    1
    11    12     1    1
    12     1     2    1
    13    11     2   ar
    14    11    10   ar
    15     2     3   ar
    16    10     9   ar
    17     3     4   ar
    18     3     5   ar
    19     9     5   ar
    20     4     6   ar
    21     5     8   ar
    22     6     7   ar
    23     8     7   ar
