@<TRIPOS>MOLECULE
/tmp/ewbell/vina_1h46_1h46_lig/vina/vina3.pdbqt
 22 23 0 0 0
SMALL
GASTEIGER

@<TRIPOS>ATOM
      1  O1         5.0380    7.1880   23.9870 O.3   433  INH433     -0.3480
      2  C1         4.2520    8.3050   24.0400 C.ar  433  INH433      0.0800
      3  C9         3.6030    8.7250   22.7790 C.ar  433  INH433      0.0070
      4  C8         3.8160    8.0060   21.6130 C.ar  433  INH433      0.0150
      5  C10        2.7480    9.9310   22.8030 C.ar  433  INH433     -0.0230
      6  C7         3.1990    8.4330   20.4410 C.ar  433  INH433      0.0010
      7  C6         2.3820    9.5600   20.4530 C.ar  433  INH433      0.0010
      8  C5         2.1500   10.3100   21.6070 C.ar  433  INH433      0.0120
      9  C4         2.5790   10.6080   24.0090 C.ar  433  INH433      0.0120
     10  C3         3.2040   10.1610   25.1800 C.ar  433  INH433      0.0040
     11  C2         4.0260    9.0230   25.2030 C.ar  433  INH433      0.0370
     12  C11        5.6750    6.7160   25.1990 C.3   433  INH433      0.2090
     13  C12        6.8550    5.8100   24.9200 C.3   433  INH433      0.1680
     14  C13        7.0550    4.8720   26.0810 C.3   433  INH433      0.2660
     15  N1         8.0680    4.0060   25.9860 N.4   433  INH433     -0.0690
     16  H22        8.3700    4.0390   25.0260 H     433  INH433      0.2770
     17  H21        8.7970    4.3690   26.5810 H     433  INH433      0.2770
     18  C14        7.9480    2.5880   26.3200 C.3   433  INH433      0.1780
     19  C16        6.8520    1.9420   25.4760 C.3   433  INH433      0.0390
     20  C15        7.5780    2.4590   27.7960 C.3   433  INH433      0.0390
     21  O2         6.6010    5.0290   23.7490 O.3   433  INH433     -0.3920
     22  H11        5.6880    4.7660   23.7350 H     433  INH433      0.2100
@<TRIPOS>BOND
     1     6     7   ar
     2     6     4   ar
     3     7     8   ar
     4     8     5   ar
     5     4     3   ar
     6     3     5   ar
     7     3     2   ar
     8     5     9   ar
     9    22    21    1
    10    21    13    1
    11     1     2    1
    12     1    12    1
    13     9    10   ar
    14     2    11   ar
    15    13    12    1
    16    13    14    1
    17    16    15    1
    18    10    11   ar
    19    19    18    1
    20    15    14    1
    21    15    18    1
    22    15    17    1
    23    18    20    1
