@<TRIPOS>MOLECULE
./ligand/1pxp_lig.pdb
 43 45 0 0 0
SMALL
GASTEIGER

@<TRIPOS>ATOM
      1  C1        25.8400   38.9330    7.6930 C.ar  299  INH299      0.0332
      2  N1        24.8070   39.6250    7.1580 N.ar  299  INH299     -0.2226
      3  C2        24.6340   40.8890    7.5400 C.ar  299  INH299      0.2200
      4  N2        25.4070   41.5310    8.4140 N.ar  299  INH299     -0.2137
      5  C3        26.4580   40.9120    8.9870 C.ar  299  INH299      0.0838
      6  C4        26.7260   39.5300    8.6380 C.ar  299  INH299     -0.0169
      7  C5        27.2300   41.7030    9.9210 C.2   299  INH299      0.0519
      8  C6        28.4880   41.5580   10.5510 C.2   299  INH299      0.0175
      9  N3        28.8380   42.5880   11.3930 N.pl3 299  INH299     -0.3298
     10  C7        27.8800   43.5160   11.4230 C.3   299  INH299      0.1107
     11  S1        26.5200   43.2120   10.4510 S.3   299  INH299     -0.0932
     12  C8        29.4860   40.4140   10.4090 C.3   299  INH299     -0.0256
     13  C9        27.9500   44.7810   12.2540 C.3   299  INH299     -0.0311
     14  N4        23.5220   41.5710    6.9430 N.pl3 299  INH299     -0.2836
     15  C10       22.9310   42.8980    7.0440 C.ar  299  INH299      0.0337
     16  C11       23.4270   43.9110    7.9250 C.ar  299  INH299     -0.0387
     17  C12       22.8120   45.1810    7.9760 C.ar  299  INH299     -0.0389
     18  C13       21.6760   45.4890    7.1470 C.ar  299  INH299      0.0293
     19  C14       21.1900   44.4540    6.2710 C.ar  299  INH299     -0.0389
     20  C15       21.8070   43.1830    6.2250 C.ar  299  INH299     -0.0387
     21  N5        21.0260   46.8450    7.1980 N.pl3 299  INH299     -0.3360
     22  C16       19.8470   47.2080    6.3560 C.3   299  INH299      0.0004
     23  C17       21.5130   47.9360    8.0960 C.3   299  INH299      0.0004
     24  H1        25.9970   37.9020    7.3970 H     299  INH299      0.0831
     25  H2        27.5540   38.9810    9.0710 H     299  INH299      0.0654
     26  H3        30.3660   40.6150   11.0380 H     299  INH299      0.0290
     27  H4        29.7990   40.3280    9.3580 H     299  INH299      0.0290
     28  H5        29.0140   39.4730   10.7290 H     299  INH299      0.0290
     29  H6        28.8980   44.8010   12.8120 H     299  INH299      0.0260
     30  H7        27.1080   44.8020   12.9610 H     299  INH299      0.0260
     31  H8        27.8950   45.6580   11.5920 H     299  INH299      0.0260
     32  H9        23.0150   40.9720    6.2760 H     299  INH299      0.1550
     33  H10       24.2820   43.7020    8.5580 H     299  INH299      0.0637
     34  H11       23.2010   45.9360    8.6500 H     299  INH299      0.0637
     35  H12       20.3350   44.6530    5.6350 H     299  INH299      0.0637
     36  H13       21.4190   42.4200    5.5600 H     299  INH299      0.0637
     37  H14       19.5510   48.2460    6.5670 H     299  INH299      0.0428
     38  H15       19.0090   46.5340    6.5880 H     299  INH299      0.0428
     39  H16       20.1120   47.1110    5.2930 H     299  INH299      0.0428
     40  H17       22.3780   47.5770    8.6730 H     299  INH299      0.0428
     41  H18       20.7080   48.2290    8.7860 H     299  INH299      0.0428
     42  H19       21.8110   48.8040    7.4900 H     299  INH299      0.0428
     43  H20       29.7180   42.6360   11.9260 H     299  INH299      0.1472
@<TRIPOS>BOND
     1     1    24    1
     2     1     6   ar
     3     1     2   ar
     4     2     3   ar
     5     3    14    1
     6     3     4   ar
     7     4     5   ar
     8     5     7    1
     9     5     6   ar
    10     6    25    1
    11     7    11    1
    12     7     8    2
    13     8    12    1
    14     8     9    1
    15     9    43    1
    16     9    10    1
    17    10    13    1
    18    10    11    1
    19    12    28    1
    20    12    27    1
    21    12    26    1
    22    13    31    1
    23    13    30    1
    24    13    29    1
    25    14    32    1
    26    14    15    1
    27    15    20   ar
    28    15    16   ar
    29    16    33    1
    30    16    17   ar
    31    17    34    1
    32    17    18   ar
    33    18    21    1
    34    18    19   ar
    35    19    35    1
    36    19    20   ar
    37    20    36    1
    38    21    23    1
    39    21    22    1
    40    22    39    1
    41    22    38    1
    42    22    37    1
    43    23    42    1
    44    23    41    1
    45    23    40    1
