@<TRIPOS>MOLECULE
/tmp/ewbell/vina_1pxp_1pxp_lig/vina/vina5.pdbqt
 27 29 0 0 0
SMALL
GASTEIGER

@<TRIPOS>ATOM
      1  C1        27.9730   41.1810   10.4480 C.3   299  INH299      0.1080
      2  N1        28.5910   42.1720   11.1330 N.3   299  INH299     -0.2020
      3  H1        29.4410   41.9900   11.6650 H     299  INH299      0.1830
      4  C2        28.0560   43.3910   11.0910 C.3   299  INH299      0.6830
      5  N2        26.9500   43.7130   10.4240 N.pl3 299  INH299     -0.1900
      6  H2        26.6110   44.6750   10.4440 H     299  INH299      0.1840
      7  C3        26.2750   42.7820    9.7210 C.2   299  INH299      0.0690
      8  C4        26.7820   41.4230    9.7010 C.2   299  INH299      0.0490
      9  N4        28.7560   44.4010   11.8330 N.pl3 299  INH299     -0.1920
     10  H9        29.7680   44.2160   11.8750 H     299  INH299      0.1840
     11  C10       28.3930   45.6210   12.5400 C.ar  299  INH299      0.0490
     12  C15       28.4680   45.6070   13.9580 C.ar  299  INH299      0.0320
     13  C14       28.1230   46.7570   14.7050 C.ar  299  INH299      0.0310
     14  C13       27.6940   47.9690   14.0550 C.ar  299  INH299      0.0290
     15  C12       27.6300   47.9670   12.6170 C.ar  299  INH299      0.0310
     16  C11       27.9730   46.8160   11.8750 C.ar  299  INH299      0.0320
     17  N5        27.3220   49.1940   14.8450 N.pl3 299  INH299     -0.3900
     18  C17       27.6850   49.3620   16.2850 C.3   299  INH299      0.1490
     19  C16       26.5640   50.3380   14.2540 C.3   299  INH299      0.1490
     20  C5        25.0870   43.2410    9.0350 C.2   299  INH299      0.0560
     21  S1        24.5410   42.2830    7.6760 S.3   299  INH299     -0.0730
     22  C7        23.2430   43.3520    7.4360 C.3   299  INH299      0.0480
     23  N3        23.1700   44.3810    8.2830 N.pl3 299  INH299     -0.3570
     24  C9        22.2570   43.1070    6.3130 C.3   299  INH299      0.0760
     25  C6        24.2020   44.3330    9.1910 C.2   299  INH299      0.0250
     26  H20       22.4430   45.1100    8.2600 H     299  INH299      0.1660
     27  C8        24.2560   45.4480   10.2310 C.3   299  INH299      0.0700
@<TRIPOS>BOND
     1    24    22    1
     2    22    21    1
     3    22    23    1
     4    21    20    1
     5    26    23    1
     6    23    25    1
     7    20    25    2
     8    20     7    1
     9    25    27    1
    10     8     7    2
    11     8     1    1
    12     7     5    1
    13     5     6    1
    14     5     4    1
    15     1     2    1
    16     4     2    1
    17     4     9    1
    18     2     3    1
    19     9    10    1
    20     9    11    1
    21    16    11   ar
    22    16    15   ar
    23    11    12   ar
    24    15    14   ar
    25    12    13   ar
    26    14    13   ar
    27    14    17    1
    28    19    17    1
    29    17    18    1
