@<TRIPOS>MOLECULE
/tmp/ewbell/vina_1pxp_1pxp_lig/vina/vina1.pdbqt
 27 29 0 0 0
SMALL
GASTEIGER

@<TRIPOS>ATOM
      1  C1        28.4800   40.7290   10.3930 C.3   299  INH299      0.1080
      2  N1        29.0140   41.7530   11.0970 N.3   299  INH299     -0.2020
      3  H1        29.8500   41.6200   11.6660 H     299  INH299      0.1830
      4  C2        28.4170   42.9420   11.0260 C.3   299  INH299      0.6830
      5  N2        27.3240   43.2020   10.3110 N.pl3 299  INH299     -0.1900
      6  H2        26.9330   44.1430   10.3110 H     299  INH299      0.1840
      7  C3        26.7310   42.2330    9.5860 C.2   299  INH299      0.0690
      8  C4        27.3100   40.9030    9.5950 C.2   299  INH299      0.0490
      9  N4        29.0290   43.9900   11.7900 N.pl3 299  INH299     -0.1920
     10  H9        30.0470   43.8610   11.8770 H     299  INH299      0.1840
     11  C10       28.5710   45.1910   12.4750 C.ar  299  INH299      0.0490
     12  C15       28.2410   46.3190   11.6790 C.ar  299  INH299      0.0320
     13  C14       27.7960   47.5170   12.2830 C.ar  299  INH299      0.0310
     14  C13       27.6600   47.6280   13.7120 C.ar  299  INH299      0.0290
     15  C12       27.9920   46.4720   14.5040 C.ar  299  INH299      0.0310
     16  C11       28.4380   45.2780   13.8980 C.ar  299  INH299      0.0320
     17  N5        27.1890   48.9020   14.3600 N.pl3 299  INH299     -0.3900
     18  C17       26.4860   49.9780   13.5990 C.3   299  INH299      0.1490
     19  C16       27.3870   49.1900   15.8120 C.3   299  INH299      0.1490
     20  C5        25.5500   42.6250    8.8470 C.2   299  INH299      0.0560
     21  S1        24.8280   44.1620    9.2710 S.3   299  INH299     -0.0730
     22  C7        23.6280   43.9300    8.0910 C.3   299  INH299      0.0480
     23  N3        23.7050   42.7940    7.3950 N.pl3 299  INH299     -0.3570
     24  C9        22.5560   44.9800    7.8840 C.3   299  INH299      0.0760
     25  C6        24.7840   42.0470    7.8080 C.2   299  INH299      0.0250
     26  H20       23.0500   42.5150    6.6520 H     299  INH299      0.1660
     27  C8        25.0080   40.7130    7.1030 C.3   299  INH299      0.0700
@<TRIPOS>BOND
     1    26    23    1
     2    27    25    1
     3    23    25    1
     4    23    22    1
     5    25    20    2
     6    24    22    1
     7    22    21    1
     8    20    21    1
     9    20     7    1
    10     7     8    2
    11     7     5    1
    12     8     1    1
    13     5     6    1
    14     5     4    1
    15     1     2    1
    16     4     2    1
    17     4     9    1
    18     2     3    1
    19    12    13   ar
    20    12    11   ar
    21     9    10    1
    22     9    11    1
    23    13    14   ar
    24    11    16   ar
    25    18    17    1
    26    14    17    1
    27    14    15   ar
    28    16    15   ar
    29    17    19    1
