@<TRIPOS>MOLECULE
/tmp/ewbell/vina_1pxp_1pxp_lig/vina/vina4.pdbqt
 27 29 0 0 0
SMALL
GASTEIGER

@<TRIPOS>ATOM
      1  C1        28.0170   41.3750   10.5700 C.3   299  INH299      0.1080
      2  N1        28.6250   42.3500   11.2860 N.3   299  INH299     -0.2020
      3  H1        29.4780   42.1600   11.8120 H     299  INH299      0.1830
      4  C2        28.0790   43.5640   11.2820 C.3   299  INH299      0.6830
      5  N2        26.9690   43.8960   10.6240 N.pl3 299  INH299     -0.1900
      6  H2        26.6200   44.8530   10.6750 H     299  INH299      0.1840
      7  C3        26.3030   42.9810    9.8930 C.2   299  INH299      0.0690
      8  C4        26.8240   41.6280    9.8310 C.2   299  INH299      0.0490
      9  N4        28.7680   44.5570   12.0540 N.pl3 299  INH299     -0.1920
     10  H9        29.7830   44.3820   12.0910 H     299  INH299      0.1840
     11  C10       28.3930   45.7510   12.8000 C.ar  299  INH299      0.0490
     12  C15       27.9160   46.8660   12.0620 C.ar  299  INH299      0.0320
     13  C14       27.5400   48.0560   12.7250 C.ar  299  INH299      0.0310
     14  C13       27.6250   48.1720   14.1590 C.ar  299  INH299      0.0290
     15  C12       28.1040   47.0290   14.8920 C.ar  299  INH299      0.0310
     16  C11       28.4810   45.8430   14.2250 C.ar  299  INH299      0.0320
     17  N5        27.2300   49.4380   14.8690 N.pl3 299  INH299     -0.3900
     18  C17       26.9510   50.7140   14.1430 C.3   299  INH299      0.1490
     19  C16       27.0860   49.5200   16.3540 C.3   299  INH299      0.1490
     20  C5        25.1110   43.4490    9.2210 C.2   299  INH299      0.0560
     21  S1        24.5210   42.4760    7.8910 S.3   299  INH299     -0.0730
     22  C7        23.2380   43.5640    7.6560 C.3   299  INH299      0.0480
     23  N3        23.2010   44.6100    8.4840 N.pl3 299  INH299     -0.3570
     24  C9        22.2260   43.3170    6.5570 C.3   299  INH299      0.0760
     25  C6        24.2500   44.5610    9.3730 C.2   299  INH299      0.0250
     26  H20       22.4870   45.3520    8.4610 H     299  INH299      0.1660
     27  C8        24.3450   45.6930   10.3900 C.3   299  INH299      0.0700
@<TRIPOS>BOND
     1    24    22    1
     2    22    21    1
     3    22    23    1
     4    21    20    1
     5    26    23    1
     6    23    25    1
     7    20    25    2
     8    20     7    1
     9    25    27    1
    10     8     7    2
    11     8     1    1
    12     7     5    1
    13     1     2    1
    14     5     6    1
    15     5     4    1
    16     4     2    1
    17     4     9    1
    18     2     3    1
    19     9    10    1
    20     9    11    1
    21    12    13   ar
    22    12    11   ar
    23    13    14   ar
    24    11    16   ar
    25    18    17    1
    26    14    17    1
    27    14    15   ar
    28    16    15   ar
    29    17    19    1
