@<TRIPOS>MOLECULE
/tmp/ewbell/vina_1pxp_1pxp_lig/vina/vina3.pdbqt
 27 29 0 0 0
SMALL
GASTEIGER

@<TRIPOS>ATOM
      1  C1        25.3380   41.0540    7.2790 C.2   299  INH299      0.1080
      2  N1        24.1010   41.4150    6.8640 N.pl3 299  INH299     -0.2020
      3  H1        23.6040   40.8700    6.1600 H     299  INH299      0.1830
      4  C2        23.5520   42.5030    7.4010 C.3   299  INH299      0.6830
      5  N2        24.1310   43.2710    8.3220 N.pl3 299  INH299     -0.1900
      6  H2        23.6370   44.0870    8.6820 H     299  INH299      0.1840
      7  C3        25.3640   42.9800    8.7830 C.2   299  INH299      0.0690
      8  C4        26.0440   41.8100    8.2610 C.2   299  INH299      0.0490
      9  N4        22.2390   42.8340    6.9260 N.pl3 299  INH299     -0.1920
     10  H9        21.7070   41.9980    6.6470 H     299  INH299      0.1840
     11  C10       21.4720   44.0580    6.7390 C.ar  299  INH299      0.0490
     12  C15       21.1170   44.4170    5.4120 C.ar  299  INH299      0.0320
     13  C14       20.3770   45.5950    5.1620 C.ar  299  INH299      0.0310
     14  C13       19.9600   46.4580    6.2380 C.ar  299  INH299      0.0290
     15  C12       20.3230   46.0750    7.5770 C.ar  299  INH299      0.0310
     16  C11       21.0640   44.8980    7.8220 C.ar  299  INH299      0.0320
     17  N5        19.1750   47.7150    5.9760 N.pl3 299  INH299     -0.3900
     18  C17       17.6820   47.7530    6.0130 C.3   299  INH299      0.1490
     19  C16       19.8260   49.0220    5.6610 C.3   299  INH299      0.1490
     20  C5        25.8980   43.8820    9.7810 C.2   299  INH299      0.0560
     21  S1        27.4810   43.4990   10.4230 S.3   299  INH299     -0.0730
     22  C7        27.4140   44.8720   11.4210 C.3   299  INH299      0.0480
     23  N3        26.3040   45.6070   11.3290 N.3   299  INH299     -0.3570
     24  C9        28.5710   45.1960   12.3430 C.3   299  INH299      0.0760
     25  C6        25.4380   45.0630   10.4080 C.3   299  INH299      0.0250
     26  H20       26.1190   46.4620   11.8720 H     299  INH299      0.1660
     27  C8        24.1170   45.7930   10.1890 C.3   299  INH299      0.0700
@<TRIPOS>BOND
     1    13    12   ar
     2    13    14   ar
     3    12    11   ar
     4    19    17    1
     5    17    18    1
     6    17    14    1
     7     3     2    1
     8    14    15   ar
     9    10     9    1
    10    11     9    1
    11    11    16   ar
    12     2     1    1
    13     2     4    1
    14     9     4    1
    15     1     8    2
    16     4     5    1
    17    15    16   ar
    18     8     7    1
    19     5     6    1
    20     5     7    1
    21     7    20    2
    22    20    25    1
    23    20    21    1
    24    27    25    1
    25    25    23    1
    26    21    22    1
    27    23    22    1
    28    23    26    1
    29    22    24    1
