@<TRIPOS>MOLECULE
/tmp/ewbell/vina_1pxp_1pxp_lig/vina/vina2.pdbqt
 27 29 0 0 0
SMALL
GASTEIGER

@<TRIPOS>ATOM
      1  C1        22.7110   48.1810    9.6260 C.3   299  INH299      0.1080
      2  N1        23.6020   47.4260   10.3100 N.3   299  INH299     -0.2020
      3  H1        24.0910   47.8000   11.1230 H     299  INH299      0.1830
      4  C2        23.8200   46.1810    9.8920 C.3   299  INH299      0.6830
      5  N2        23.2260   45.6170    8.8420 N.pl3 299  INH299     -0.1900
      6  H2        23.4510   44.6540    8.5920 H     299  INH299      0.1840
      7  C3        22.3300   46.3050    8.1070 C.2   299  INH299      0.0690
      8  C4        22.0210   47.6700    8.4870 C.2   299  INH299      0.0490
      9  N4        24.7710   45.4270   10.6570 N.pl3 299  INH299     -0.1920
     10  H9        24.7840   45.7130   11.6470 H     299  INH299      0.1840
     11  C10       25.7230   44.3590   10.3850 C.ar  299  INH299      0.0490
     12  C15       26.9280   44.3420   11.1360 C.ar  299  INH299      0.0320
     13  C14       27.8950   43.3360   10.9160 C.ar  299  INH299      0.0310
     14  C13       27.6880   42.3010    9.9350 C.ar  299  INH299      0.0290
     15  C12       26.4580   42.3290    9.1880 C.ar  299  INH299      0.0310
     16  C11       25.4950   43.3370    9.4090 C.ar  299  INH299      0.0320
     17  N5        28.7170   41.2300    9.6950 N.pl3 299  INH299     -0.3900
     18  C17       30.1640   41.4190   10.0140 C.3   299  INH299      0.1490
     19  C16       28.3730   39.8950    9.1190 C.3   299  INH299      0.1490
     20  C5        21.7460   45.5960    6.9890 C.2   299  INH299      0.0560
     21  S1        21.0940   46.5710    5.6900 S.3   299  INH299     -0.0730
     22  C7        20.6460   45.1640    4.8510 C.3   299  INH299      0.0480
     23  N3        20.9350   44.0080    5.4530 N.pl3 299  INH299     -0.3570
     24  C9        19.9610   45.2700    3.5040 C.3   299  INH299      0.0760
     25  C6        21.5560   44.2340    6.6600 C.2   299  INH299      0.0250
     26  H20       20.7230   43.0770    5.0680 H     299  INH299      0.1660
     27  C8        21.9520   43.0050    7.4710 C.3   299  INH299      0.0700
@<TRIPOS>BOND
     1    24    22    1
     2    22    23    1
     3    22    21    1
     4    26    23    1
     5    23    25    1
     6    21    20    1
     7    25    20    2
     8    25    27    1
     9    20     7    1
    10     7     8    2
    11     7     5    1
    12     8     1    1
    13     6     5    1
    14     5     4    1
    15    19    17    1
    16    15    16   ar
    17    15    14   ar
    18    16    11   ar
    19     1     2    1
    20    17    14    1
    21    17    18    1
    22     4     2    1
    23     4     9    1
    24    14    13   ar
    25     2     3    1
    26    11     9    1
    27    11    12   ar
    28     9    10    1
    29    13    12   ar
