@<TRIPOS>MOLECULE
./ligand/1gjd_lig.pdb
 35 36 0 0 0
SMALL
GASTEIGER

@<TRIPOS>ATOM
      1  H1         9.4060    2.2550   22.6550 H     263  INH263      0.0651
      2  H2         9.4600    3.4350   26.7830 H     263  INH263      0.0636
      3  H3         8.5320    1.2570   27.4380 H     263  INH263      0.0627
      4  H4         6.8510   -1.7560   27.2460 H     263  INH263      0.2883
      5  H5         6.9240    0.0180   27.4280 H     263  INH263      0.2883
      6  H6         8.9440   -1.7610   24.4050 H     263  INH263      0.3009
      7  H7         8.0150   -2.7620   25.5530 H     263  INH263      0.3009
      8  H8        10.8280    4.1090   23.8230 H     263  INH263      0.1551
      9  H9         9.1490    7.7700   25.5790 H     263  INH263      0.0629
     10  H10       11.0650   10.9610   24.6760 H     263  INH263      0.0278
     11  H11       10.4310   10.2340   26.1920 H     263  INH263      0.0278
     12  H12        9.3360   10.4860   24.7910 H     263  INH263      0.0278
     13  H13       12.3420    9.6250   23.4600 H     263  INH263      0.0632
     14  C1         8.4240    0.4770   25.4380 C.ar  263  INH263      0.0792
     15  C2         8.6750    0.7880   24.0770 C.ar  263  INH263      0.0574
     16  C3         9.2100    2.0250   23.6960 C.ar  263  INH263     -0.0213
     17  C4         9.4780    2.9400   24.6910 C.ar  263  INH263      0.0351
     18  C5         9.2400    2.6860   26.0310 C.ar  263  INH263     -0.0396
     19  C6         8.7190    1.4630   26.3900 C.ar  263  INH263     -0.0439
     20  C7         7.9660   -0.7630   25.8710 C.2   263  INH263      0.2676
     21  N1         7.1920   -0.8390   26.9230 N.pl3 263  INH263     -0.2497
     22  N2         8.3340   -1.8370   25.2320 N.2   263  INH263     -0.2884
     23  N3        10.0210    4.0990   24.4140 N.am  263  INH263     -0.2814
     24  C8         9.5730    5.2520   24.8630 C.2   263  INH263      0.2520
     25  O1         8.5730    5.3300   25.5720 O.2   263  INH263     -0.2697
     26  C9        10.3470    6.3850   24.4390 C.ar  263  INH263      0.0849
     27  C10       10.0010    7.6750   24.9160 C.ar  263  INH263     -0.0429
     28  C11       10.7100    8.8310   24.5700 C.ar  263  INH263     -0.0485
     29  C12       10.3610   10.2260   25.0940 C.3   263  INH263     -0.0397
     30  C13       11.7910    8.7310   23.7280 C.ar  263  INH263     -0.0420
     31  C14       12.1880    7.5100   23.2170 C.ar  263  INH263      0.0610
     32  C15       11.4910    6.3340   23.5630 C.ar  263  INH263      0.2041
     33  O2        11.9880    5.1500   23.0440 O.3   263  INH263     -0.2860
     34 Cl1         8.2710   -0.3910   22.7950 Cl    263  INH263     -0.0826
     35  I1        13.7640    7.5300   21.9140 I     263  INH263     -0.0398
@<TRIPOS>BOND
     1     1    16    1
     2     2    18    1
     3     3    19    1
     4     4    21    1
     5     5    21    1
     6     6    22    1
     7     7    22    1
     8     8    23    1
     9     9    27    1
    10    10    29    1
    11    11    29    1
    12    12    29    1
    13    13    30    1
    14    14    20    1
    15    14    19   ar
    16    14    15   ar
    17    15    34    1
    18    15    16   ar
    19    16    17   ar
    20    17    23    1
    21    17    18   ar
    22    18    19   ar
    23    20    22    2
    24    20    21    1
    25    23    24   am
    26    24    26    1
    27    24    25    2
    28    26    32   ar
    29    26    27   ar
    30    27    28   ar
    31    28    30   ar
    32    28    29    1
    33    30    31   ar
    34    31    35    1
    35    31    32   ar
    36    32    33    1
