@<TRIPOS>MOLECULE
/tmp/ewbell/vina_1gjd_1gjd_lig/vina/vina3.pdbqt
 28 29 0 0 0
SMALL
GASTEIGER

@<TRIPOS>ATOM
      1  C1         8.5910    0.7070   24.9930 C.ar  263  INH263      0.0290
      2  C2         8.8410    0.8010   23.6000 C.ar  263  INH263      0.0500
      3  C3         9.4900    1.9120   23.0460 C.ar  263  INH263      0.0540
      4  C4         9.8710    2.9220   23.9020 C.ar  263  INH263      0.0360
      5  C5         9.6390    2.8810   25.2660 C.ar  263  INH263      0.0300
      6  C6         9.0060    1.7780   25.7960 C.ar  263  INH263      0.0190
      7 Cl1         8.2920   -0.4960   22.4980 Cl    263  INH263     -0.0830
      8  N3        10.5220    3.9700   23.4620 N.am  263  INH263     -0.3230
      9  H8        11.3290    3.8150   22.8920 H     263  INH263      0.1690
     10  C8        10.1810    5.2150   23.7200 C.2   263  INH263      0.2590
     11  O1        10.8140    6.1690   23.2750 O.2   263  INH263     -0.2670
     12  C9         9.0280    5.3410   24.5670 C.ar  263  INH263      0.0670
     13  C15        7.6630    5.4230   24.1110 C.ar  263  INH263      0.0980
     14  C14        6.6020    5.5570   25.0300 C.ar  263  INH263      0.0410
     15  C13        6.8600    5.6250   26.3860 C.ar  263  INH263      0.0270
     16  I1         4.6360    5.5930   24.4680 I     263  INH263     -0.0420
     17  C11        8.1430    5.5560   26.8690 C.ar  263  INH263     -0.0600
     18  C10        9.2080    5.4130   25.9720 C.ar  263  INH263      0.0260
     19  C12        8.3240    5.6580   28.3860 C.3   263  INH263      0.0480
     20  O2         7.3150    5.4110   22.7700 O.3   263  INH263     -0.3580
     21  H          7.3320    4.6070   22.2890 H     263  INH263      0.2170
     22  C7         8.0200   -0.4080   25.5980 C.2   263  INH263      0.1040
     23  N2         8.4410   -1.5960   25.2720 N.2   263  INH263     -0.3850
     24  H6         9.1790   -1.7040   24.5600 H     263  INH263      0.1570
     25  H7         8.0370   -2.4280   25.7260 H     263  INH263      0.1570
     26  N1         7.0850   -0.2500   26.5000 N.pl3 263  INH263     -0.3850
     27  H4         6.1650    0.1250   26.2270 H     263  INH263      0.1570
     28  H5         7.2690   -0.5030   27.4820 H     263  INH263      0.1570
@<TRIPOS>BOND
     1    21    20    1
     2     7     2    1
     3    20    13    1
     4     9     8    1
     5     3     2   ar
     6     3     4   ar
     7    11    10    2
     8     8    10   am
     9     8     4    1
    10     2     1   ar
    11    10    12    1
    12     4     5   ar
    13    13    12   ar
    14    13    14   ar
    15    16    14    1
    16    24    23    1
    17    12    18   ar
    18     1    22    1
    19     1     6   ar
    20    14    15   ar
    21     5     6   ar
    22    23    22    2
    23    23    25    1
    24    22    26    1
    25    18    17   ar
    26    27    26    1
    27    15    17   ar
    28    26    28    1
    29    17    19    1
