@<TRIPOS>MOLECULE
/tmp/ewbell/vina_1gjd_1gjd_lig/vina/vina5.pdbqt
 28 29 0 0 0
SMALL
GASTEIGER

@<TRIPOS>ATOM
      1  C1        13.9280   10.1060   22.2780 C.ar  263  INH263      0.0290
      2  C2        12.7590   10.8740   22.5100 C.ar  263  INH263      0.0500
      3  C3        12.1040   11.5450   21.4690 C.ar  263  INH263      0.0540
      4  C4        12.6420   11.4430   20.2050 C.ar  263  INH263      0.0360
      5  C5        13.7880   10.7150   19.9310 C.ar  263  INH263      0.0300
      6  C6        14.4160   10.0550   20.9640 C.ar  263  INH263      0.0190
      7 Cl1        12.1040   11.0390   24.1660 Cl    263  INH263     -0.0830
      8  N3        12.0600   12.0050   19.1760 N.am  263  INH263     -0.3230
      9  H8        11.3500   11.4870   18.6980 H     263  INH263      0.1690
     10  C8        12.3480   13.2090   18.7300 C.2   263  INH263      0.2590
     11  O1        11.7660   13.7040   17.7670 O.2   263  INH263     -0.2670
     12  C9        13.3960   13.8670   19.4580 C.ar  263  INH263      0.0670
     13  C15       13.2050   14.7410   20.5890 C.ar  263  INH263      0.0980
     14  C14       14.3080   15.3460   21.2280 C.ar  263  INH263      0.0410
     15  C13       15.5910   15.1180   20.7660 C.ar  263  INH263      0.0270
     16  I1        14.1260   16.5260   22.8870 I     263  INH263     -0.0420
     17  C11       15.8230   14.2980   19.6900 C.ar  263  INH263     -0.0600
     18  C10       14.7420   13.6820   19.0500 C.ar  263  INH263      0.0260
     19  C12       17.2780   14.1240   19.2460 C.3   263  INH263      0.0480
     20  O2        11.9540   15.0630   21.0890 O.3   263  INH263     -0.3580
     21  H         11.8350   15.8530   21.5790 H     263  INH263      0.2170
     22  C7        14.5680    9.3620   23.2630 C.2   263  INH263      0.1040
     23  N2        15.5100    9.9170   23.9700 N.pl3 263  INH263     -0.3850
     24  H6        15.7860   10.8930   23.7860 H     263  INH263      0.1570
     25  H7        15.9800    9.3810   24.7140 H     263  INH263      0.1570
     26  N1        14.2040    8.1250   23.4820 N.2   263  INH263     -0.3850
     27  H4        14.3970    7.6850   24.3940 H     263  INH263      0.1570
     28  H5        13.7220    7.5910   22.7430 H     263  INH263      0.1570
@<TRIPOS>BOND
     1    11    10    2
     2     9     8    1
     3    10     8   am
     4    10    12    1
     5    18    12   ar
     6    18    17   ar
     7     8     4    1
     8    19    17    1
     9    12    13   ar
    10    17    15   ar
    11     5     4   ar
    12     5     6   ar
    13     4     3   ar
    14    13    20    1
    15    13    14   ar
    16    15    14   ar
    17     6     1   ar
    18    20    21    1
    19    14    16    1
    20     3     2   ar
    21     1     2   ar
    22     1    22    1
    23     2     7    1
    24    28    26    1
    25    22    26    2
    26    22    23    1
    27    26    27    1
    28    24    23    1
    29    23    25    1
