@<TRIPOS>MOLECULE
/tmp/ewbell/vina_1gjd_1gjd_lig/vina/vina4.pdbqt
 28 29 0 0 0
SMALL
GASTEIGER

@<TRIPOS>ATOM
      1  C1        12.8110   12.4030   19.8090 C.ar  263  INH263      0.0290
      2  C2        13.6110   13.2350   20.6330 C.ar  263  INH263      0.0500
      3  C3        14.7300   12.7340   21.3130 C.ar  263  INH263      0.0540
      4  C4        15.0230   11.3970   21.1610 C.ar  263  INH263      0.0360
      5  C5        14.2660   10.5430   20.3780 C.ar  263  INH263      0.0300
      6  C6        13.1730   11.0520   19.7110 C.ar  263  INH263      0.0190
      7 Cl1        13.1840   14.9560   20.8590 Cl    263  INH263     -0.0830
      8  N3        16.0790   10.8690   21.7300 N.am  263  INH263     -0.3230
      9  H8        16.9700   11.0330   21.3060 H     263  INH263      0.1690
     10  C8        16.0420   10.1380   22.8230 C.2   263  INH263      0.2590
     11  O1        17.0600    9.6730   23.3300 O.2   263  INH263     -0.2670
     12  C9        14.7200    9.9330   23.3450 C.ar  263  INH263      0.0670
     13  C15       13.8930    8.7790   23.0950 C.ar  263  INH263      0.0980
     14  C14       12.6010    8.6830   23.6510 C.ar  263  INH263      0.0410
     15  C13       12.1020    9.7060   24.4350 C.ar  263  INH263      0.0270
     16  I1        11.4040    7.0420   23.4140 I     263  INH263     -0.0420
     17  C11       12.8500   10.8280   24.6980 C.ar  263  INH263     -0.0600
     18  C10       14.1380   10.9350   24.1630 C.ar  263  INH263      0.0260
     19  C12       12.2000   11.9110   25.5630 C.3   263  INH263      0.0480
     20  O2        14.2920    7.7290   22.2840 O.3   263  INH263     -0.3580
     21  H         13.6540    7.1350   21.9400 H     263  INH263      0.2170
     22  C7        11.7390   12.8690   19.0560 C.2   263  INH263      0.1040
     23  N2        11.9600   13.3740   17.8760 N.2   263  INH263     -0.3850
     24  H6        12.9240   13.4390   17.5160 H     263  INH263      0.1570
     25  H7        11.1720   13.7070   17.3020 H     263  INH263      0.1570
     26  N1        10.5230   12.7770   19.5300 N.pl3 263  INH263     -0.3850
     27  H4        10.3660   12.3920   20.4720 H     263  INH263      0.1570
     28  H5         9.7230   13.0920   18.9610 H     263  INH263      0.1570
@<TRIPOS>BOND
     1    25    23    1
     2    24    23    1
     3    23    22    2
     4    28    26    1
     5    22    26    1
     6    22     1    1
     7    26    27    1
     8     6     1   ar
     9     6     5   ar
    10     1     2   ar
    11     5     4   ar
    12     2     7    1
    13     2     3   ar
    14     4     3   ar
    15     4     8    1
    16     9     8    1
    17     8    10   am
    18    21    20    1
    19    20    13    1
    20    10    11    2
    21    10    12    1
    22    13    12   ar
    23    13    14   ar
    24    12    18   ar
    25    16    14    1
    26    14    15   ar
    27    18    17   ar
    28    15    17   ar
    29    17    19    1
