@<TRIPOS>MOLECULE
/tmp/ewbell/vina_1gjd_1gjd_lig/vina/vina2.pdbqt
 28 29 0 0 0
SMALL
GASTEIGER

@<TRIPOS>ATOM
      1  C1         5.2060    6.7760   25.9710 C.ar  263  INH263      0.0290
      2  C2         5.2250    6.0740   24.7390 C.ar  263  INH263      0.0500
      3  C3         6.2750    6.2310   23.8230 C.ar  263  INH263      0.0540
      4  C4         7.2890    7.1020   24.1560 C.ar  263  INH263      0.0360
      5  C5         7.3080    7.8180   25.3420 C.ar  263  INH263      0.0300
      6  C6         6.2720    7.6480   26.2330 C.ar  263  INH263      0.0190
      7 Cl1         3.8740    4.9880   24.3000 Cl    263  INH263     -0.0830
      8  N3         8.3240    7.2640   23.3710 N.am  263  INH263     -0.3230
      9  H8         8.3160    8.0410   22.7400 H     263  INH263      0.1690
     10  C8         9.3740    6.4720   23.3580 C.2   263  INH263      0.2590
     11  O1        10.3300    6.6700   22.6120 O.2   263  INH263     -0.2670
     12  C9         9.2860    5.3700   24.2740 C.ar  263  INH263      0.0670
     13  C15        9.1910    3.9800   23.9020 C.ar  263  INH263      0.0980
     14  C14        9.0990    2.9740   24.8870 C.ar  263  INH263      0.0410
     15  C13        9.0830    3.3110   26.2270 C.ar  263  INH263      0.0270
     16  I1         9.0470    0.9790   24.4420 I     263  INH263     -0.0420
     17  C11        9.1670    4.6210   26.6310 C.ar  263  INH263     -0.0600
     18  C10        9.2690    5.6310   25.6680 C.ar  263  INH263      0.0260
     19  C12        9.1240    4.8900   28.1380 C.3   263  INH263      0.0480
     20  O2         9.1510    3.5550   22.5850 O.3   263  INH263     -0.3580
     21  H          8.6080    2.8300   22.3430 H     263  INH263      0.2170
     22  C7         4.2270    6.5970   26.9420 C.2   263  INH263      0.1040
     23  N2         3.2520    7.4560   27.0300 N.2   263  INH263     -0.3850
     24  H6         3.2190    8.2660   26.3950 H     263  INH263      0.1570
     25  H7         2.5120    7.3240   27.7360 H     263  INH263      0.1570
     26  N1         4.2850    5.5610   27.7400 N.pl3 263  INH263     -0.3850
     27  H4         3.9410    4.6450   27.4190 H     263  INH263      0.1570
     28  H5         4.6770    5.6630   28.6880 H     263  INH263      0.1570
@<TRIPOS>BOND
     1    21    20    1
     2    20    13    1
     3    11    10    2
     4     9     8    1
     5    10     8   am
     6    10    12    1
     7     8     4    1
     8     3     4   ar
     9     3     2   ar
    10    13    12   ar
    11    13    14   ar
    12     4     5   ar
    13    12    18   ar
    14     7     2    1
    15    16    14    1
    16     2     1   ar
    17    14    15   ar
    18     5     6   ar
    19    18    17   ar
    20     1     6   ar
    21     1    22    1
    22    15    17   ar
    23    24    23    1
    24    17    19    1
    25    22    23    2
    26    22    26    1
    27    23    25    1
    28    27    26    1
    29    26    28    1
