@<TRIPOS>MOLECULE
/tmp/ewbell/vina_1gjd_1gjd_lig/vina/vina1.pdbqt
 28 29 0 0 0
SMALL
GASTEIGER

@<TRIPOS>ATOM
      1  C1         5.8550    6.8090   23.7570 C.ar  263  INH263      0.0290
      2  C2         6.7050    7.7090   24.4470 C.ar  263  INH263      0.0500
      3  C3         8.0920    7.7080   24.2450 C.ar  263  INH263      0.0540
      4  C4         8.6070    6.7910   23.3550 C.ar  263  INH263      0.0360
      5  C5         7.8180    5.8840   22.6670 C.ar  263  INH263      0.0300
      6  C6         6.4560    5.9030   22.8720 C.ar  263  INH263      0.0190
      7 Cl1         6.0250    8.8570   25.6380 Cl    263  INH263     -0.0830
      8  N3         9.8870    6.7610   23.0820 N.am  263  INH263     -0.3230
      9  H8        10.2540    7.4720   22.4800 H     263  INH263      0.1690
     10  C8        10.7220    5.8570   23.5470 C.2   263  INH263      0.2590
     11  O1        11.9200    5.8750   23.2740 O.2   263  INH263     -0.2670
     12  C9        10.1030    4.8620   24.3770 C.ar  263  INH263      0.0670
     13  C15        9.8550    3.4940   23.9970 C.ar  263  INH263      0.0980
     14  C14        9.2290    2.5990   24.8890 C.ar  263  INH263      0.0410
     15  C13        8.8300    3.0290   26.1410 C.ar  263  INH263      0.0270
     16  I1         8.9200    0.6250   24.4560 I     263  INH263     -0.0420
     17  C11        9.0410    4.3240   26.5480 C.ar  263  INH263     -0.0600
     18  C10        9.6690    5.2220   25.6790 C.ar  263  INH263      0.0260
     19  C12        8.5470    4.7040   27.9460 C.3   263  INH263      0.0480
     20  O2        10.1760    2.9900   22.7480 O.3   263  INH263     -0.3580
     21  H         10.9550    2.4810   22.6340 H     263  INH263      0.2170
     22  C7         4.4680    6.8230   23.8670 C.2   263  INH263      0.1040
     23  N2         3.7900    7.7500   23.2540 N.2   263  INH263     -0.3850
     24  H6         4.2810    8.4720   22.7070 H     263  INH263      0.1570
     25  H7         2.7610    7.7610   23.3140 H     263  INH263      0.1570
     26  N1         3.8620    5.8980   24.5670 N.pl3 263  INH263     -0.3850
     27  H4         4.2980    4.9710   24.6810 H     263  INH263      0.1570
     28  H5         2.9510    6.0980   25.0040 H     263  INH263      0.1570
@<TRIPOS>BOND
     1     9     8    1
     2    21    20    1
     3     5     6   ar
     4     5     4   ar
     5    24    23    1
     6    20    13    1
     7     6     1   ar
     8     8     4    1
     9     8    10   am
    10    23    25    1
    11    23    22    2
    12    11    10    2
    13     4     3   ar
    14    10    12    1
    15     1    22    1
    16     1     2   ar
    17    22    26    1
    18    13    12   ar
    19    13    14   ar
    20     3     2   ar
    21    12    18   ar
    22     2     7    1
    23    16    14    1
    24    26    27    1
    25    26    28    1
    26    14    15   ar
    27    18    17   ar
    28    15    17   ar
    29    17    19    1
