@<TRIPOS>MOLECULE
./ligand/1qxl_lig.pdb
 67 70 0 0 0
SMALL
GASTEIGER

@<TRIPOS>ATOM
      1  C1        51.6200   54.4570   20.8610 C.2   353  INH353      0.0201
      2  N1        51.7420   55.4290   21.9490 N.pl3 353  INH353     -0.3076
      3  C2        51.7530   54.7620   23.0990 C.3   353  INH353      0.1235
      4  N2        51.7180   53.4410   22.8880 N.pl3 353  INH353     -0.3180
      5  C3        51.5590   53.2580   21.4380 C.2   353  INH353      0.1048
      6  C4        51.3510   51.9560   20.7490 C.2   353  INH353      0.2566
      7  O1        51.1170   51.9070   19.5500 O.2   353  INH353     -0.2690
      8  N3        51.4620   50.8560   21.4520 N.am  353  INH353     -0.3243
      9  C5        51.7290   56.8740   21.8040 C.3   353  INH353      0.0496
     10  C6        53.1720   57.4710   21.7480 C.3   353  INH353      0.0628
     11  O2        54.0170   56.8090   22.7800 O.3   353  INH353     -0.3932
     12  C7        50.8830   57.2580   20.5730 C.3   353  INH353     -0.0141
     13  C8        49.3530   57.1200   20.8080 C.3   353  INH353      0.0251
     14  N4        48.6800   57.3870   19.5050 N.ar  353  INH353     -0.3465
     15  C9        48.0790   58.5510   19.1000 C.ar  353  INH353      0.0057
     16  C10       47.5980   58.3980   17.8000 C.ar  353  INH353     -0.0364
     17  C11       47.9190   57.0630   17.3840 C.ar  353  INH353     -0.0000
     18  C12       48.5830   56.4510   18.4910 C.ar  353  INH353      0.0508
     19  C13       47.7070   56.3650   16.2330 C.ar  353  INH353     -0.0508
     20  C14       48.1520   55.0500   16.1290 C.ar  353  INH353     -0.0398
     21  C15       48.8100   54.4380   17.2310 C.ar  353  INH353      0.0354
     22  C16       49.0050   55.1640   18.3980 C.ar  353  INH353     -0.0164
     23  N5        49.3280   53.1940   17.2310 N.am  353  INH353     -0.2854
     24  C17       49.0430   52.2480   16.3380 C.2   353  INH353      0.2172
     25  O3        48.4270   52.3840   15.3020 O.2   353  INH353     -0.2755
     26  C18       49.5660   50.9080   16.7700 C.3   353  INH353      0.0243
     27  C19       48.4510   49.8730   16.8750 C.3   353  INH353     -0.0445
     28  C20       46.3970   47.1670   16.2550 C.ar  353  INH353     -0.0586
     29  C21       46.8070   47.4600   17.5560 C.ar  353  INH353     -0.0474
     30  C22       45.8770   47.5770   18.5710 C.ar  353  INH353     -0.0586
     31  C23       44.5550   47.2890   18.2950 C.ar  353  INH353     -0.0615
     32  C24       44.1590   46.9370   17.0080 C.ar  353  INH353     -0.0617
     33  C25       45.0680   46.8990   15.9670 C.ar  353  INH353     -0.0615
     34  C26       48.6290   49.0290   18.1250 C.3   353  INH353     -0.0486
     35  C27       48.2440   47.5900   17.8670 C.3   353  INH353     -0.0277
     36  H1        51.5860   54.6710   19.7940 H     353  INH353      0.0801
     37  H2        51.7860   55.2290   24.0820 H     353  INH353      0.0744
     38  H3        51.3270   49.9670   21.0140 H     353  INH353      0.1453
     39  H4        51.6810   50.9050   22.4260 H     353  INH353      0.1453
     40  H5        51.2370   57.2960   22.6930 H     353  INH353      0.0523
     41  H6        53.1310   58.5520   21.9450 H     353  INH353      0.0576
     42  H7        53.6040   57.2960   20.7520 H     353  INH353      0.0576
     43  H8        54.8950   57.1690   22.7490 H     353  INH353      0.2095
     44  H9        51.1680   56.6030   19.7360 H     353  INH353      0.0301
     45  H10       51.1030   58.3040   20.3110 H     353  INH353      0.0301
     46  H11       49.0200   57.8500   21.5600 H     353  INH353      0.0492
     47  H12       49.1150   56.1030   21.1530 H     353  INH353      0.0492
     48  H13       47.9910   59.4550   19.7010 H     353  INH353      0.0809
     49  H14       47.0760   59.1510   17.2110 H     353  INH353      0.0639
     50  H15       47.1930   56.8320   15.4010 H     353  INH353      0.0625
     51  H16       47.9970   54.4940   15.2110 H     353  INH353      0.0636
     52  H17       49.4990   54.6990   19.2430 H     353  INH353      0.0657
     53  H18       49.9760   52.9640   17.9570 H     353  INH353      0.1548
     54  H19       50.0480   51.0140   17.7530 H     353  INH353      0.0358
     55  H20       50.3060   50.5610   16.0340 H     353  INH353      0.0358
     56  H21       48.4780   49.2200   15.9900 H     353  INH353      0.0270
     57  H22       47.4810   50.3890   16.9210 H     353  INH353      0.0270
     58  H23       47.1300   47.1490   15.4560 H     353  INH353      0.0620
     59  H24       46.1790   47.8890   19.5640 H     353  INH353      0.0620
     60  H25       43.8180   47.3380   19.0890 H     353  INH353      0.0618
     61  H26       43.1210   46.6890   16.8190 H     353  INH353      0.0618
     62  H27       44.7510   46.6670   14.9570 H     353  INH353      0.0618
     63  H28       47.9930   49.4330   18.9260 H     353  INH353      0.0269
     64  H29       49.6830   49.0690   18.4390 H     353  INH353      0.0269
     65  H30       48.8290   47.2110   17.0160 H     353  INH353      0.0313
     66  H31       48.4710   46.9940   18.7630 H     353  INH353      0.0313
     67  H32       51.7880   52.7000   23.6000 H     353  INH353      0.1481
@<TRIPOS>BOND
     1     1    36    1
     2     1     5    2
     3     1     2    1
     4     2     9    1
     5     2     3    1
     6     3    37    1
     7     3     4    1
     8     4    67    1
     9     4     5    1
    10     5     6    1
    11     6     8   am
    12     6     7    2
    13     8    39    1
    14     8    38    1
    15     9    40    1
    16     9    12    1
    17     9    10    1
    18    10    42    1
    19    10    41    1
    20    10    11    1
    21    11    43    1
    22    12    45    1
    23    12    44    1
    24    12    13    1
    25    13    47    1
    26    13    46    1
    27    13    14    1
    28    14    18   ar
    29    14    15   ar
    30    15    48    1
    31    15    16   ar
    32    16    49    1
    33    16    17   ar
    34    17    19   ar
    35    17    18   ar
    36    18    22   ar
    37    19    20   ar
    38    19    50    1
    39    20    21   ar
    40    20    51    1
    41    21    22   ar
    42    21    23    1
    43    22    52    1
    44    23    53    1
    45    23    24   am
    46    24    26    1
    47    24    25    2
    48    26    55    1
    49    26    54    1
    50    26    27    1
    51    27    57    1
    52    27    56    1
    53    27    34    1
    54    28    29   ar
    55    28    58    1
    56    28    33   ar
    57    29    35    1
    58    29    30   ar
    59    30    31   ar
    60    30    59    1
    61    31    32   ar
    62    31    60    1
    63    32    33   ar
    64    32    61    1
    65    33    62    1
    66    34    64    1
    67    34    63    1
    68    34    35    1
    69    35    66    1
    70    35    65    1
