@<TRIPOS>MOLECULE
/tmp/ewbell/vina_1qxl_1qxl_lig/vina/vina4.pdbqt
 40 43 0 0 0
SMALL
GASTEIGER

@<TRIPOS>ATOM
      1  N4        50.1300   53.8390   20.5400 N.ar  353  INH353     -0.3560
      2  C9        50.8100   54.0650   21.7100 C.ar  353  INH353      0.0920
      3  C10       51.6540   52.9860   21.9720 C.ar  353  INH353      0.0310
      4  C11       51.4860   52.0460   20.9020 C.ar  353  INH353     -0.0080
      5  C12       50.5320   52.6270   20.0100 C.ar  353  INH353      0.0460
      6  C13       52.0350   50.8290   20.6300 C.ar  353  INH353      0.0160
      7  C14       51.6560   50.1400   19.4810 C.ar  353  INH353      0.0300
      8  C15       50.7100   50.7170   18.5910 C.ar  353  INH353      0.0360
      9  C16       50.1720   51.9630   18.8820 C.ar  353  INH353      0.0600
     10  C8        49.1060   54.7160   19.9030 C.3   353  INH353      0.1310
     11  C7        49.8590   55.9260   19.2830 C.3   353  INH353      0.0480
     12  C5        49.4110   57.2850   19.8580 C.3   353  INH353      0.1150
     13  N1        48.2160   57.7330   19.1640 N.pl3 353  INH353     -0.3440
     14  C1        46.9860   58.2120   19.7950 C.2   353  INH353      0.1270
     15  C3        46.1110   58.4030   18.8090 C.2   353  INH353      0.1170
     16  N2        46.7920   58.1240   17.5360 N.pl3 353  INH353     -0.3470
     17  C2        48.0110   57.6710   17.8520 C.3   353  INH353      0.1830
     18  H32       46.4060   58.2510   16.5890 H     353  INH353      0.1670
     19  C4        44.6880   58.8120   18.9580 C.2   353  INH353      0.2670
     20  N3        44.1050   59.4090   17.9490 N.am  353  INH353     -0.3650
     21  H4        44.6140   59.5790   17.1060 H     353  INH353      0.1590
     22  H3        43.1490   59.6940   18.0210 H     353  INH353      0.1590
     23  O1        44.0860   58.6280   20.0060 O.2   353  INH353     -0.2660
     24  C6        49.2080   57.2410   21.4070 C.3   353  INH353      0.1890
     25  O2        50.4920   57.5820   22.0790 O.3   353  INH353     -0.3990
     26  H8        50.7510   56.8680   22.6490 H     353  INH353      0.2090
     27  N5        50.2300   50.1250   17.4790 N.am  353  INH353     -0.3270
     28  H18       49.5520   49.4000   17.5990 H     353  INH353      0.1690
     29  C17       50.5890   50.4320   16.2340 C.2   353  INH353      0.2220
     30  O3        51.3910   51.2760   15.8930 O.2   353  INH353     -0.2730
     31  C18       49.8460   49.6030   15.2270 C.3   353  INH353      0.1030
     32  C19       48.5550   50.2800   14.7790 C.3   353  INH353      0.0100
     33  C26       47.4010   49.2930   14.8100 C.3   353  INH353      0.0050
     34  C27       47.7390   48.0920   15.6620 C.3   353  INH353      0.0380
     35  C21       46.6910   47.8290   16.6690 C.ar  353  INH353     -0.0580
     36  C20       47.0090   47.8400   18.0270 C.ar  353  INH353      0.0070
     37  C25       46.0200   47.7370   18.9930 C.ar  353  INH353      0.0010
     38  C24       44.7090   47.6170   18.5690 C.ar  353  INH353      0.0000
     39  C23       44.3960   47.5440   17.2150 C.ar  353  INH353      0.0010
     40  C22       45.3890   47.6230   16.2580 C.ar  353  INH353      0.0070
@<TRIPOS>BOND
     1    32    33    1
     2    32    31    1
     3    33    34    1
     4    31    29    1
     5    34    35    1
     6    30    29    2
     7    29    27   am
     8    40    35   ar
     9    40    39   ar
    10    18    16    1
    11    35    36   ar
    12    21    20    1
    13    39    38   ar
    14    27    28    1
    15    27     8    1
    16    16    17    1
    17    16    15    1
    18    17    13    1
    19    20    22    1
    20    20    19   am
    21    36    37   ar
    22    38    37   ar
    23     8     9   ar
    24     8     7   ar
    25    15    19    1
    26    15    14    2
    27     9     5   ar
    28    19    23    2
    29    13    14    1
    30    13    12    1
    31    11    12    1
    32    11    10    1
    33     7     6   ar
    34    12    24    1
    35    10     1    1
    36     5     1   ar
    37     5     4   ar
    38     1     2   ar
    39     6     4   ar
    40     4     3   ar
    41    24    25    1
    42     2     3   ar
    43    25    26    1
