@<TRIPOS>MOLECULE
/tmp/ewbell/vina_1qxl_1qxl_lig/vina/vina5.pdbqt
 40 43 0 0 0
SMALL
GASTEIGER

@<TRIPOS>ATOM
      1  N4        50.6290   51.3800   18.8850 N.ar  353  INH353     -0.3560
      2  C9        51.3670   50.3340   19.3760 C.ar  353  INH353      0.0920
      3  C10       51.8900   50.6780   20.6220 C.ar  353  INH353      0.0310
      4  C11       51.4440   52.0100   20.9150 C.ar  353  INH353     -0.0080
      5  C12       50.6370   52.4110   19.8070 C.ar  353  INH353      0.0460
      6  C13       51.6420   52.8520   21.9680 C.ar  353  INH353      0.0160
      7  C14       51.0640   54.1180   21.9590 C.ar  353  INH353      0.0300
      8  C15       50.2570   54.5190   20.8590 C.ar  353  INH353      0.0360
      9  C16       50.0600   53.6400   19.8020 C.ar  353  INH353      0.0600
     10  C8        49.9200   51.4540   17.5760 C.3   353  INH353      0.1310
     11  C7        48.6900   50.5070   17.6640 C.3   353  INH353      0.0480
     12  C5        48.8300   49.2400   16.7950 C.3   353  INH353      0.1150
     13  N1        47.7570   48.3150   17.1140 N.pl3 353  INH353     -0.3440
     14  C1        46.6370   48.5800   18.0200 C.2   353  INH353      0.1270
     15  C3        45.9600   47.4370   18.1190 C.2   353  INH353      0.1170
     16  N2        46.5890   46.4560   17.2230 N.pl3 353  INH353     -0.3470
     17  C2        47.6810   47.0470   16.7240 C.3   353  INH353      0.1830
     18  H32       46.2560   45.5020   17.0200 H     353  INH353      0.1670
     19  C4        44.7830   47.1820   18.9910 C.2   353  INH353      0.2670
     20  N3        43.5900   47.4420   18.5160 N.am  353  INH353     -0.3650
     21  H4        43.4880   47.8030   17.5890 H     353  INH353      0.1590
     22  H3        42.7810   47.2800   19.0800 H     353  INH353      0.1590
     23  O1        44.9210   46.7720   20.1340 O.2   353  INH353     -0.2660
     24  C6        48.8890   49.5660   15.2680 C.3   353  INH353      0.1890
     25  O2        47.6670   50.3230   14.8800 O.3   353  INH353     -0.3990
     26  H8        47.7040   50.5320   13.9550 H     353  INH353      0.2090
     27  N5        49.6890   55.7320   20.7140 N.am  353  INH353     -0.3270
     28  H18       48.7570   55.8490   21.0560 H     353  INH353      0.1690
     29  C17       50.2760   56.7880   20.1520 C.2   353  INH353      0.2220
     30  O3        51.3930   56.8380   19.6830 O.2   353  INH353     -0.2730
     31  C18       49.3790   57.9920   20.1740 C.3   353  INH353      0.1030
     32  C19       48.0550   57.6970   20.8720 C.3   353  INH353      0.0100
     33  C26       46.8980   57.8560   19.9000 C.3   353  INH353      0.0050
     34  C27       47.2780   58.7560   18.7470 C.3   353  INH353      0.0380
     35  C21       46.4320   59.9640   18.6990 C.ar  353  INH353     -0.0580
     36  C20       45.0540   59.8460   18.5120 C.ar  353  INH353      0.0070
     37  C25       44.2230   60.9500   18.6060 C.ar  353  INH353      0.0010
     38  C24       44.8000   62.1750   18.8840 C.ar  353  INH353      0.0000
     39  C23       46.1800   62.3070   19.0100 C.ar  353  INH353      0.0010
     40  C22       47.0050   61.2060   18.8930 C.ar  353  INH353      0.0070
@<TRIPOS>BOND
     1    26    25    1
     2    25    24    1
     3    24    12    1
     4    17    13    1
     5    17    16    1
     6    12    13    1
     7    12    11    1
     8    18    16    1
     9    13    14    1
    10    16    15    1
    11    10    11    1
    12    10     1    1
    13    21    20    1
    14    14    15    2
    15    15    19    1
    16    36    37   ar
    17    36    35   ar
    18    20    19   am
    19    20    22    1
    20    37    38   ar
    21    35    34    1
    22    35    40   ar
    23    34    33    1
    24    38    39   ar
    25     1     2   ar
    26     1     5   ar
    27    40    39   ar
    28    19    23    2
    29     2     3   ar
    30    30    29    2
    31     9     5   ar
    32     9     8   ar
    33     5     4   ar
    34    33    32    1
    35    29    31    1
    36    29    27   am
    37    31    32    1
    38     3     4   ar
    39    27     8    1
    40    27    28    1
    41     8     7   ar
    42     4     6   ar
    43     7     6   ar
