@<TRIPOS>MOLECULE
/tmp/ewbell/vina_1qxl_1qxl_lig/vina/vina3.pdbqt
 40 43 0 0 0
SMALL
GASTEIGER

@<TRIPOS>ATOM
      1  N4        50.5290   54.6050   20.4940 N.ar  353  INH353     -0.3560
      2  C9        51.5560   54.5900   21.4020 C.ar  353  INH353      0.0920
      3  C10       51.4870   55.7310   22.2010 C.ar  353  INH353      0.0310
      4  C11       50.3510   56.4890   21.7600 C.ar  353  INH353     -0.0080
      5  C12       49.7620   55.7380   20.6970 C.ar  353  INH353      0.0460
      6  C13       49.8040   57.6720   22.1560 C.ar  353  INH353      0.0160
      7  C14       48.6700   58.1610   21.5130 C.ar  353  INH353      0.0300
      8  C15       48.0810   57.4140   20.4560 C.ar  353  INH353      0.0360
      9  C16       48.6480   56.2050   20.0770 C.ar  353  INH353      0.0600
     10  C8        50.2430   53.5980   19.4330 C.3   353  INH353      0.1310
     11  C7        51.5680   52.8370   19.1510 C.3   353  INH353      0.0480
     12  C5        51.4740   51.3210   19.4240 C.3   353  INH353      0.1150
     13  N1        50.8070   50.6710   18.3100 N.pl3 353  INH353     -0.3440
     14  C1        49.7320   49.6820   18.4120 C.2   353  INH353      0.1270
     15  C3        49.4950   49.2600   17.1710 C.2   353  INH353      0.1170
     16  N2        50.3560   50.0260   16.2570 N.pl3 353  INH353     -0.3470
     17  C2        51.1420   50.7870   17.0290 C.3   353  INH353      0.1830
     18  H32       50.3550   49.9840   15.2280 H     353  INH353      0.1670
     19  C4        48.5410   48.1920   16.7690 C.2   353  INH353      0.2670
     20  N3        48.7660   46.9700   17.1840 N.am  353  INH353     -0.3650
     21  H4        49.5630   46.7750   17.7560 H     353  INH353      0.1590
     22  H3        48.1410   46.2330   16.9300 H     353  INH353      0.1590
     23  O1        47.5900   48.4370   16.0420 O.2   353  INH353     -0.2660
     24  C6        52.8670   50.6820   19.7290 C.3   353  INH353      0.1890
     25  O2        52.7130   49.2050   19.8470 O.3   353  INH353     -0.3990
     26  H8        53.5630   48.7910   19.7680 H     353  INH353      0.2090
     27  N5        47.0170   57.8070   19.7280 N.am  353  INH353     -0.3270
     28  H18       46.1190   57.4620   19.9980 H     353  INH353      0.1690
     29  C17       47.0720   58.6210   18.6750 C.2   353  INH353      0.2220
     30  O3        48.0630   59.1360   18.2010 O.2   353  INH353     -0.2730
     31  C18       45.7060   58.8790   18.1070 C.3   353  INH353      0.1030
     32  C19       45.5650   60.3110   17.6020 C.3   353  INH353      0.0100
     33  C26       45.1170   61.2270   18.7280 C.3   353  INH353      0.0050
     34  C27       46.1670   62.2720   19.0280 C.3   353  INH353      0.0380
     35  C21       45.8980   63.5340   18.3130 C.ar  353  INH353     -0.0580
     36  C20       44.6210   64.0950   18.3410 C.ar  353  INH353      0.0070
     37  C25       44.3780   65.3480   17.7990 C.ar  353  INH353      0.0010
     38  C24       45.4390   66.0220   17.2230 C.ar  353  INH353      0.0000
     39  C23       46.7000   65.4380   17.1380 C.ar  353  INH353      0.0010
     40  C22       46.9300   64.1810   17.6600 C.ar  353  INH353      0.0070
@<TRIPOS>BOND
     1    18    16    1
     2    23    19    2
     3    16    17    1
     4    16    15    1
     5    19    15    1
     6    19    20   am
     7    22    20    1
     8    17    13    1
     9    39    38   ar
    10    39    40   ar
    11    15    14    2
    12    20    21    1
    13    38    37   ar
    14    32    31    1
    15    32    33    1
    16    40    35   ar
    17    37    36   ar
    18    31    29    1
    19    30    29    2
    20    13    14    1
    21    13    12    1
    22    35    36   ar
    23    35    34    1
    24    29    27   am
    25    33    34    1
    26    11    12    1
    27    11    10    1
    28    12    24    1
    29    10     1    1
    30    27    28    1
    31    27     8    1
    32    24    25    1
    33    26    25    1
    34     9     8   ar
    35     9     5   ar
    36     8     7   ar
    37     1     5   ar
    38     1     2   ar
    39     5     4   ar
    40     2     3   ar
    41     7     6   ar
    42     4     6   ar
    43     4     3   ar
