@<TRIPOS>MOLECULE
/tmp/ewbell/vina_1qxl_1qxl_lig/vina/vina2.pdbqt
 40 43 0 0 0
SMALL
GASTEIGER

@<TRIPOS>ATOM
      1  N4        50.0910   50.9700   18.8310 N.ar  353  INH353     -0.3560
      2  C9        50.6670   49.7810   19.2000 C.ar  353  INH353      0.0920
      3  C10       51.4130   49.9680   20.3630 C.ar  353  INH353      0.0310
      4  C11       51.2870   51.3480   20.7310 C.ar  353  INH353     -0.0080
      5  C12       50.4310   51.9430   19.7540 C.ar  353  INH353      0.0460
      6  C13       51.7910   52.0940   21.7540 C.ar  353  INH353      0.0160
      7  C14       51.4810   53.4490   21.8410 C.ar  353  INH353      0.0300
      8  C15       50.6270   54.0410   20.8710 C.ar  353  INH353      0.0360
      9  C16       50.1150   53.2600   19.8440 C.ar  353  INH353      0.0600
     10  C8        49.2380   51.2320   17.6370 C.3   353  INH353      0.1310
     11  C7        48.1930   50.0840   17.5570 C.3   353  INH353      0.0480
     12  C5        48.4550   49.0980   16.4000 C.3   353  INH353      0.1150
     13  N1        47.1940   48.5280   15.9580 N.pl3 353  INH353     -0.3440
     14  C1        46.1190   48.0450   16.8260 C.2   353  INH353      0.1270
     15  C3        45.2080   47.4990   16.0220 C.2   353  INH353      0.1170
     16  N2        45.6500   47.6940   14.6340 N.pl3 353  INH353     -0.3470
     17  C2        46.8650   48.2520   14.7000 C.3   353  INH353      0.1830
     18  H32       45.1280   47.4490   13.7800 H     353  INH353      0.1670
     19  C4        43.9660   46.7980   16.4440 C.2   353  INH353      0.2670
     20  N3        43.9570   46.1950   17.6070 N.am  353  INH353     -0.3650
     21  H4        44.7720   46.2130   18.1860 H     353  INH353      0.1590
     22  H3        43.1360   45.7170   17.9160 H     353  INH353      0.1590
     23  O1        42.9870   46.7540   15.7130 O.2   353  INH353     -0.2660
     24  C6        49.2480   49.7540   15.2240 C.3   353  INH353      0.1890
     25  O2        50.5920   49.1210   15.1260 O.3   353  INH353     -0.3990
     26  H8        50.5700   48.2640   15.5340 H     353  INH353      0.2090
     27  N5        50.2980   55.3470   20.8230 N.am  353  INH353     -0.3270
     28  H18       49.5450   55.6560   21.4030 H     353  INH353      0.1690
     29  C17       50.9000   56.2590   20.0600 C.2   353  INH353      0.2220
     30  O3        51.8240   56.0760   19.2960 O.2   353  INH353     -0.2730
     31  C18       50.3080   57.6240   20.2630 C.3   353  INH353      0.1030
     32  C19       49.4740   57.6940   21.5380 C.3   353  INH353      0.0100
     33  C26       48.0970   58.2620   21.2400 C.3   353  INH353      0.0050
     34  C27       47.3910   57.4450   20.1820 C.3   353  INH353      0.0380
     35  C21       46.2850   58.1990   19.5620 C.ar  353  INH353     -0.0580
     36  C20       46.4970   58.9000   18.3740 C.ar  353  INH353      0.0070
     37  C25       45.4440   59.4960   17.6980 C.ar  353  INH353      0.0010
     38  C24       44.1770   59.3800   18.2400 C.ar  353  INH353      0.0000
     39  C23       43.9720   58.7340   19.4560 C.ar  353  INH353      0.0010
     40  C22       45.0290   58.1620   20.1360 C.ar  353  INH353      0.0070
@<TRIPOS>BOND
     1    18    16    1
     2    16    17    1
     3    16    15    1
     4    17    13    1
     5    25    24    1
     6    25    26    1
     7    24    12    1
     8    23    19    2
     9    13    12    1
    10    13    14    1
    11    15    19    1
    12    15    14    2
    13    12    11    1
    14    19    20   am
    15    11    10    1
    16    20    22    1
    17    20    21    1
    18    10     1    1
    19    37    38   ar
    20    37    36   ar
    21    38    39   ar
    22    36    35   ar
    23     1     2   ar
    24     1     5   ar
    25     2     3   ar
    26    30    29    2
    27    39    40   ar
    28    35    40   ar
    29    35    34    1
    30     5     9   ar
    31     5     4   ar
    32     9     8   ar
    33    29    31    1
    34    29    27   am
    35    34    33    1
    36    31    32    1
    37     3     4   ar
    38     4     6   ar
    39    27     8    1
    40    27    28    1
    41     8     7   ar
    42    33    32    1
    43     6     7   ar
