@<TRIPOS>MOLECULE
/tmp/ewbell/vina_1qxl_1qxl_lig/vina/vina1.pdbqt
 40 43 0 0 0
SMALL
GASTEIGER

@<TRIPOS>ATOM
      1  N4        50.7320   54.7610   20.6830 N.ar  353  INH353     -0.3560
      2  C9        51.5020   54.7040   21.8160 C.ar  353  INH353      0.0920
      3  C10       51.2500   55.8260   22.6060 C.ar  353  INH353      0.0310
      4  C11       50.2670   56.6150   21.9200 C.ar  353  INH353     -0.0080
      5  C12       49.9510   55.9030   20.7230 C.ar  353  INH353      0.0460
      6  C13       49.6530   57.7980   22.2040 C.ar  353  INH353      0.0160
      7  C14       48.7200   58.3240   21.3150 C.ar  353  INH353      0.0300
      8  C15       48.4020   57.6150   20.1240 C.ar  353  INH353      0.0360
      9  C16       49.0310   56.4060   19.8600 C.ar  353  INH353      0.0600
     10  C8        50.7060   53.7880   19.5540 C.3   353  INH353      0.1310
     11  C7        51.4190   52.4960   20.0440 C.3   353  INH353      0.0480
     12  C5        50.6780   51.2010   19.6530 C.3   353  INH353      0.1150
     13  N1        51.0110   50.8510   18.2830 N.pl3 353  INH353     -0.3440
     14  C1        52.2790   51.1320   17.6090 C.2   353  INH353      0.1270
     15  C3        52.1200   50.7550   16.3420 C.2   353  INH353      0.1170
     16  N2        50.7820   50.1590   16.2090 N.pl3 353  INH353     -0.3470
     17  C2        50.1780   50.3220   17.3920 C.3   353  INH353      0.1830
     18  H32       50.3880   49.7080   15.3710 H     353  INH353      0.1670
     19  C4        53.1080   50.9160   15.2420 C.2   353  INH353      0.2670
     20  N3        53.7080   49.8450   14.7840 N.am  353  INH353     -0.3650
     21  H4        53.4980   48.9490   15.1740 H     353  INH353      0.1590
     22  H3        54.3770   49.9240   14.0450 H     353  INH353      0.1590
     23  O1        53.3820   52.0210   14.7970 O.2   353  INH353     -0.2660
     24  C6        50.9620   50.0280   20.6440 C.3   353  INH353      0.1890
     25  O2        52.2710   49.4050   20.3060 O.3   353  INH353     -0.3990
     26  H8        52.9750   49.9440   20.6440 H     353  INH353      0.2090
     27  N5        47.5570   58.0470   19.1670 N.am  353  INH353     -0.3270
     28  H18       47.9520   58.3100   18.2870 H     353  INH353      0.1690
     29  C17       46.2360   58.1500   19.3040 C.2   353  INH353      0.2220
     30  O3        45.5810   57.8800   20.2890 O.2   353  INH353     -0.2730
     31  C18       45.5880   58.6380   18.0400 C.3   353  INH353      0.1030
     32  C19       46.0330   60.0550   17.6890 C.3   353  INH353      0.0100
     33  C26       45.5020   61.0440   18.7120 C.3   353  INH353      0.0050
     34  C27       46.5120   62.1340   18.9870 C.3   353  INH353      0.0380
     35  C21       46.0580   63.4400   18.4700 C.ar  353  INH353     -0.0580
     36  C20       46.9450   64.2650   17.7780 C.ar  353  INH353      0.0070
     37  C25       46.5070   65.4260   17.1610 C.ar  353  INH353      0.0010
     38  C24       45.1650   65.7460   17.2580 C.ar  353  INH353      0.0000
     39  C23       44.2900   64.9580   17.9990 C.ar  353  INH353      0.0010
     40  C22       44.7380   63.8140   18.6300 C.ar  353  INH353      0.0070
@<TRIPOS>BOND
     1    22    20    1
     2    20    21    1
     3    20    19   am
     4    23    19    2
     5    19    15    1
     6    18    16    1
     7    16    15    1
     8    16    17    1
     9    15    14    2
    10    37    38   ar
    11    37    36   ar
    12    38    39   ar
    13    17    13    1
    14    14    13    1
    15    32    31    1
    16    32    33    1
    17    36    35   ar
    18    39    40   ar
    19    31    29    1
    20    13    12    1
    21    28    27    1
    22    35    40   ar
    23    35    34    1
    24    33    34    1
    25    27    29   am
    26    27     8    1
    27    29    30    2
    28    10    11    1
    29    10     1    1
    30    12    11    1
    31    12    24    1
    32     9     8   ar
    33     9     5   ar
    34     8     7   ar
    35    25    26    1
    36    25    24    1
    37     1     5   ar
    38     1     2   ar
    39     5     4   ar
    40     7     6   ar
    41     2     3   ar
    42     4     6   ar
    43     4     3   ar
