@<TRIPOS>MOLECULE
./ligand/2hr6_lig.pdb
 35 36 0 0 0
SMALL
GASTEIGER

@<TRIPOS>ATOM
      1  C1        -6.5490   33.4520    3.6180 C.ar  421  INH421      0.0192
      2  C2        -7.5660   32.8260    4.3430 C.ar  421  INH421      0.0170
      3  C3        -5.5250   32.6300    3.1130 C.ar  421  INH421      0.2539
      4  C4        -6.5680   30.6590    4.1380 C.ar  421  INH421      0.3313
      5  C5        -8.5210   31.3080    6.8780 C.3   421  INH421      0.0214
      6  C6        -9.6060   32.3650    7.0550 C.3   421  INH421      0.0877
      7  C7       -10.6370   31.9570    6.0000 C.3   421  INH421      0.1107
      8  C8        -8.6640   30.8650    5.4150 C.3   421  INH421      0.1422
      9  C9       -11.4910   33.1070    5.4880 C.3   421  INH421      0.0836
     10  N1        -5.5670   31.2790    3.4090 N.ar  421  INH421     -0.2749
     11  N2        -7.5800   31.4320    4.6140 N.ar  421  INH421     -0.2740
     12  O1       -14.4910   36.2720    3.3350 O.2   421  INH421     -0.2221
     13  O2       -13.9690   33.9680    2.6350 O.3   421  INH421     -0.1143
     14  O3       -12.3900   35.9570    5.5870 O.2   421  INH421     -0.5170
     15  O4        -4.5580   33.0550    2.4610 O.2   421  INH421     -0.2677
     16  O5        -6.5240   29.4420    4.3270 O.2   421  INH421     -0.2464
     17  O6       -13.4400   35.6020    1.0390 O.3   421  INH421     -0.1143
     18  O7       -10.2420   36.5740    4.2780 O.3   421  INH421     -0.4370
     19  O8        -9.8770   31.3790    4.9170 O.3   421  INH421     -0.3483
     20  O9       -10.0790   32.3560    8.3890 O.3   421  INH421     -0.3890
     21  O10      -10.6700   34.1550    4.9760 O.3   421  INH421     -0.3245
     22  O11      -12.0240   35.3080    3.1290 O.3   421  INH421     -0.2261
     23  P1       -13.4800   35.4960    2.5250 P.3   421  INH421      0.5373
     24  P2       -11.3590   35.5570    4.5440 P.3   421  INH421      0.2224
     25  H1        -6.5490   34.5190    3.4530 H     421  INH421      0.0686
     26  H2        -8.3800   33.4310    4.7150 H     421  INH421      0.0813
     27  H3        -8.6700   30.4640    7.5670 H     421  INH421      0.0335
     28  H4        -7.5160   31.6960    7.1030 H     421  INH421      0.0335
     29  H5        -9.2860   33.4070    6.9070 H     421  INH421      0.0621
     30  H6       -11.3570   31.2560    6.4480 H     421  INH421      0.0646
     31  H7        -8.6360   29.7670    5.3610 H     421  INH421      0.0840
     32  H8       -12.1000   33.4990    6.3160 H     421  INH421      0.0591
     33  H9       -12.1370   32.7360    4.6790 H     421  INH421      0.0591
     34  H10       -4.8190   30.7080    3.0710 H     421  INH421      0.1734
     35  H11       -9.3410   32.3540    8.9870 H     421  INH421      0.2099
@<TRIPOS>BOND
     1     1     2   ar
     2     1    25    1
     3     1     3   ar
     4     2    11   ar
     5     2    26    1
     6     3    15    2
     7     3    10   ar
     8     4    11   ar
     9     4    10   ar
    10     4    16    2
    11     5     6    1
    12     5    28    1
    13     5    27    1
    14     5     8    1
    15     6     7    1
    16     6    29    1
    17     6    20    1
    18     7     9    1
    19     7    30    1
    20     7    19    1
    21     8    31    1
    22     8    19    1
    23     8    11    1
    24     9    21    1
    25     9    33    1
    26     9    32    1
    27    10    34    1
    28    12    23    2
    29    13    23    1
    30    14    24    2
    31    17    23    1
    32    18    24    1
    33    20    35    1
    34    21    24    1
    35    22    23    1
    36    22    24    1
