@<TRIPOS>MOLECULE
/tmp/ewbell/vina_2hr6_2hr6_lig/vina/vina1.pdbqt
 29 30 0 0 0
SMALL
GASTEIGER

@<TRIPOS>ATOM
      1  C5        -8.5490   31.2650    6.7610 C.3   421  INH421      0.0880
      2  C6        -9.5280   32.4010    7.0390 C.3   421  INH421      0.1530
      3  C7       -10.6010   32.1780    5.9700 C.3   421  INH421      0.1770
      4  C8        -8.7440   30.9580    5.2700 C.3   421  INH421      0.2350
      5  O8        -9.9070   31.6220    4.8330 O.3   421  INH421     -0.3560
      6  C9       -11.3460   33.4400    5.5650 C.3   421  INH421      0.2150
      7  O10      -11.8510   34.1180    6.7140 O.3   421  INH421     -0.2940
      8  P2       -11.8450   35.7390    6.7400 P.3   421  INH421      0.4010
      9  O3       -10.5010   36.2310    7.2510 O.2   421  INH421     -0.6310
     10  O7       -12.2610   36.2390    5.3520 O.3   421  INH421     -0.3070
     11  H        -12.4160   37.1950    5.3850 H     421  INH421      0.2220
     12  O11      -13.0290   36.1720    7.6970 O.3   421  INH421     -0.1950
     13  P1       -13.4420   37.5170    8.4340 P.3   421  INH421      0.3990
     14  O1       -14.7860   37.5680    9.1200 O.2   421  INH421     -0.6310
     15  O2       -13.6240   38.4410    7.1300 O.3   421  INH421     -0.3070
     16  H        -14.5690   38.5470    6.9380 H     421  INH421      0.2220
     17  O6       -12.2530   38.2010    9.0170 O.3   421  INH421     -0.3070
     18  H        -12.1950   37.9960    9.9640 H     421  INH421      0.2220
     19  O9        -9.9900   32.3280    8.3750 O.3   421  INH421     -0.3930
     20  H11       -9.3350   32.6930    8.9570 H     421  INH421      0.2100
     21  N2        -7.6170   31.4840    4.5010 N.ar  421  INH421     -0.2820
     22  C2        -7.4810   32.8880    4.3320 C.ar  421  INH421      0.1040
     23  C1        -6.4160   33.4730    3.6430 C.ar  421  INH421      0.0920
     24  C3        -5.4700   32.6040    3.0690 C.ar  421  INH421      0.2500
     25  O4        -4.4720   32.9880    2.4400 O.2   421  INH421     -0.2680
     26  N1        -5.6300   31.2430    3.2670 N.ar  421  INH421     -0.2750
     27  C4        -6.6790   30.6630    3.9600 C.ar  421  INH421      0.3310
     28  H10       -4.9370   30.6360    2.8810 H     421  INH421      0.1730
     29  O5        -6.7420   29.4360    4.0600 O.2   421  INH421     -0.2460
@<TRIPOS>BOND
     1    25    24    2
     2    28    26    1
     3    24    26   ar
     4    24    23   ar
     5    26    27   ar
     6    23    22   ar
     7    27    29    2
     8    27    21   ar
     9    22    21   ar
    10    21     4    1
    11     5     4    1
    12     5     3    1
    13     4     1    1
    14    10    11    1
    15    10     8    1
    16     6     3    1
    17     6     7    1
    18     3     2    1
    19     7     8    1
    20     8     9    2
    21     8    12    1
    22     1     2    1
    23    16    15    1
    24     2    19    1
    25    15    13    1
    26    12    13    1
    27    19    20    1
    28    13    17    1
    29    13    14    2
    30    17    18    1
