@<TRIPOS>MOLECULE
/tmp/ewbell/vina_2hr6_2hr6_lig/vina/vina2.pdbqt
 29 30 0 0 0
SMALL
GASTEIGER

@<TRIPOS>ATOM
      1  C5        -8.3850   31.2620    6.9440 C.3   421  INH421      0.0880
      2  C6        -9.4070   32.3600    7.2170 C.3   421  INH421      0.1530
      3  C7       -10.5070   32.0450    6.2000 C.3   421  INH421      0.1770
      4  C8        -8.6200   30.8880    5.4730 C.3   421  INH421      0.2350
      5  O8        -9.8290   31.4790    5.0580 O.3   421  INH421     -0.3560
      6  C9       -11.3280   33.2540    5.7780 C.3   421  INH421      0.2150
      7  O10      -11.2790   34.2700    6.7780 O.3   421  INH421     -0.2940
      8  P2       -11.8010   35.7610    6.4150 P.3   421  INH421      0.4010
      9  O3       -12.9000   36.1630    7.3850 O.2   421  INH421     -0.6310
     10  O7       -10.5830   36.6900    6.3540 O.3   421  INH421     -0.3070
     11  H        -10.0920   36.5280    5.5340 H     421  INH421      0.2220
     12  O11      -12.3320   35.6940    4.9250 O.3   421  INH421     -0.1950
     13  P1       -12.2750   36.6620    3.6670 P.3   421  INH421      0.3990
     14  O1       -12.5430   36.0740    2.3030 O.2   421  INH421     -0.6310
     15  O2       -10.6920   36.9470    3.6750 O.3   421  INH421     -0.3070
     16  H        -10.5350   37.8990    3.7680 H     421  INH421      0.2220
     17  O6       -12.7410   38.0340    4.0200 O.3   421  INH421     -0.3070
     18  H        -12.8180   38.5660    3.2120 H     421  INH421      0.2220
     19  O9        -9.8150   32.3160    8.5720 O.3   421  INH421     -0.3930
     20  H11      -10.2920   31.5110    8.7340 H     421  INH421      0.2100
     21  N2        -7.5500   31.4380    4.6420 N.ar  421  INH421     -0.2820
     22  C2        -7.4850   32.8390    4.4220 C.ar  421  INH421      0.1040
     23  C1        -6.4750   33.4470    3.6710 C.ar  421  INH421      0.0920
     24  C3        -5.5150   32.6020    3.0870 C.ar  421  INH421      0.2500
     25  O4        -4.5620   33.0080    2.4050 O.2   421  INH421     -0.2680
     26  N1        -5.6050   31.2430    3.3360 N.ar  421  INH421     -0.2750
     27  C4        -6.5980   30.6400    4.0890 C.ar  421  INH421      0.3310
     28  H10       -4.9000   30.6530    2.9410 H     421  INH421      0.1730
     29  O5        -6.6000   29.4160    4.2310 O.2   421  INH421     -0.2460
@<TRIPOS>BOND
     1    14    13    2
     2    25    24    2
     3    28    26    1
     4    24    26   ar
     5    24    23   ar
     6    18    17    1
     7    26    27   ar
     8    13    15    1
     9    13    17    1
    10    13    12    1
    11    23    22   ar
    12    15    16    1
    13    27    29    2
    14    27    21   ar
    15    22    21   ar
    16    21     4    1
    17    12     8    1
    18     5     4    1
    19     5     3    1
    20     4     1    1
    21    11    10    1
    22     6     3    1
    23     6     7    1
    24     3     2    1
    25    10     8    1
    26     8     7    1
    27     8     9    2
    28     1     2    1
    29     2    19    1
    30    19    20    1
