@<TRIPOS>MOLECULE
/tmp/ewbell/vina_2hr6_2hr6_lig/vina/vina3.pdbqt
 29 30 0 0 0
SMALL
GASTEIGER

@<TRIPOS>ATOM
      1  C5        -8.6950   31.4740    6.8090 C.3   421  INH421      0.0880
      2  C6       -10.0330   32.1730    6.5920 C.3   421  INH421      0.1530
      3  C7       -10.7400   31.2310    5.6140 C.3   421  INH421      0.1770
      4  C8        -8.4830   30.6620    5.5240 C.3   421  INH421      0.2350
      5  O8        -9.6930   30.6560    4.8040 O.3   421  INH421     -0.3560
      6  C9       -11.7730   31.9140    4.7310 C.3   421  INH421      0.2150
      7  O10      -12.9190   32.2900    5.4940 O.3   421  INH421     -0.2940
      8  P2       -13.2390   33.8630    5.7130 P.3   421  INH421      0.4010
      9  O3       -14.6010   34.1890    5.1230 O.2   421  INH421     -0.6310
     10  O7       -13.0560   34.1840    7.2010 O.3   421  INH421     -0.3070
     11  H        -12.6670   33.4180    7.6520 H     421  INH421      0.2220
     12  O11      -12.0810   34.6580    4.9830 O.3   421  INH421     -0.1950
     13  P1       -11.4420   36.1040    5.1360 P.3   421  INH421      0.3990
     14  O1       -10.9630   36.8060    3.8880 O.2   421  INH421     -0.6310
     15  O2       -10.0910   35.6750    5.8960 O.3   421  INH421     -0.3070
     16  H        -10.0340   34.7080    5.9320 H     421  INH421      0.2220
     17  O6       -12.0820   36.8630    6.2490 O.3   421  INH421     -0.3070
     18  H        -11.4950   36.8570    7.0220 H     421  INH421      0.2220
     19  O9       -10.6930   32.3530    7.8320 O.3   421  INH421     -0.3930
     20  H11      -11.6320   32.3040    7.7010 H     421  INH421      0.2100
     21  N2        -7.4730   31.3090    4.6870 N.ar  421  INH421     -0.2820
     22  C2        -7.4620   32.7240    4.5720 C.ar  421  INH421      0.1040
     23  C1        -6.5100   33.4210    3.8240 C.ar  421  INH421      0.0920
     24  C3        -5.5540   32.6550    3.1320 C.ar  421  INH421      0.2500
     25  O4        -4.6490   33.1440    2.4390 O.2   421  INH421     -0.2680
     26  N1        -5.5900   31.2790    3.2790 N.ar  421  INH421     -0.2750
     27  C4        -6.5260   30.5880    4.0300 C.ar  421  INH421      0.3310
     28  H10       -4.8880   30.7460    2.8070 H     421  INH421      0.1730
     29  O5        -6.4830   29.3570    4.0780 O.2   421  INH421     -0.2460
@<TRIPOS>BOND
     1    25    24    2
     2    28    26    1
     3    24    26   ar
     4    24    23   ar
     5    26    27   ar
     6    23    22   ar
     7    14    13    2
     8    27    29    2
     9    27    21   ar
    10    22    21   ar
    11    21     4    1
    12     6     7    1
    13     6     3    1
    14     5     4    1
    15     5     3    1
    16    12    13    1
    17    12     8    1
    18     9     8    2
    19    13    15    1
    20    13    17    1
    21     7     8    1
    22     4     1    1
    23     3     2    1
    24     8    10    1
    25    15    16    1
    26    17    18    1
    27     2     1    1
    28     2    19    1
    29    10    11    1
    30    20    19    1
