@<TRIPOS>MOLECULE
/tmp/ewbell/vina_2hr6_2hr6_lig/vina/vina5.pdbqt
 29 30 0 0 0
SMALL
GASTEIGER

@<TRIPOS>ATOM
      1  C5       -14.7860   33.5470   10.6990 C.3   421  INH421      0.0880
      2  C6       -14.7380   34.4340    9.4590 C.3   421  INH421      0.1530
      3  C7       -16.1950   34.4190    8.9890 C.3   421  INH421      0.1770
      4  C8       -15.9810   32.6160   10.4490 C.3   421  INH421      0.2350
      5  O8       -16.7070   33.1190    9.3520 O.3   421  INH421     -0.3560
      6  C9       -16.3690   34.6540    7.4970 C.3   421  INH421      0.2150
      7  O10      -16.0320   35.9980    7.1560 O.3   421  INH421     -0.2940
      8  P2       -17.1990   36.9980    6.6440 P.3   421  INH421      0.4010
      9  O3       -17.0070   37.2850    5.1630 O.2   421  INH421     -0.6310
     10  O7       -18.5510   36.3960    7.0420 O.3   421  INH421     -0.3070
     11  H        -19.2670   36.9610    6.7130 H     421  INH421      0.2220
     12  O11      -17.0700   38.3140    7.5150 O.3   421  INH421     -0.1950
     13  P1       -16.0650   38.8270    8.6320 P.3   421  INH421      0.3990
     14  O1       -16.0220   38.0850    9.9460 O.2   421  INH421     -0.6310
     15  O2       -16.8040   40.2120    8.9810 O.3   421  INH421     -0.3070
     16  H        -16.7890   40.3540    9.9400 H     421  INH421      0.2220
     17  O6       -14.8260   39.3920    8.0260 O.3   421  INH421     -0.3070
     18  H        -14.4970   38.7880    7.3410 H     421  INH421      0.2220
     19  O9       -14.2310   35.7110    9.7960 O.3   421  INH421     -0.3930
     20  H11      -13.6270   35.6310   10.5240 H     421  INH421      0.2100
     21  N2       -15.5060   31.2800   10.0920 N.ar  421  INH421     -0.2820
     22  C2       -14.9990   31.0450    8.7870 C.ar  421  INH421      0.1040
     23  C1       -14.4930   29.8080    8.3760 C.ar  421  INH421      0.0920
     24  C3       -14.5370   28.7580    9.3110 C.ar  421  INH421      0.2500
     25  O4       -14.1140   27.6140    9.0830 O.2   421  INH421     -0.2680
     26  N1       -15.0260   29.0300   10.5770 N.ar  421  INH421     -0.2750
     27  C4       -15.5170   30.2580   10.9880 C.ar  421  INH421      0.3310
     28  H10      -15.0250   28.2840   11.2420 H     421  INH421      0.1730
     29  O5       -15.9520   30.3900   12.1330 O.2   421  INH421     -0.2460
@<TRIPOS>BOND
     1     9     8    2
     2     8    10    1
     3     8     7    1
     4     8    12    1
     5    11    10    1
     6     7     6    1
     7    18    17    1
     8     6     3    1
     9    12    13    1
    10    17    13    1
    11    23    22   ar
    12    23    24   ar
    13    13    15    1
    14    13    14    2
    15    22    21   ar
    16    15    16    1
    17     3     5    1
    18     3     2    1
    19    25    24    2
    20    24    26   ar
    21     5     4    1
    22     2    19    1
    23     2     1    1
    24    19    20    1
    25    21     4    1
    26    21    27   ar
    27     4     1    1
    28    26    27   ar
    29    26    28    1
    30    27    29    2
