@<TRIPOS>MOLECULE
/tmp/ewbell/vina_2hr6_2hr6_lig/vina/vina4.pdbqt
 29 30 0 0 0
SMALL
GASTEIGER

@<TRIPOS>ATOM
      1  C5        -8.8880   31.5050    6.7380 C.3   421  INH421      0.0880
      2  C6       -10.1980   32.2330    6.4570 C.3   421  INH421      0.1530
      3  C7       -10.8770   31.3090    5.4440 C.3   421  INH421      0.1770
      4  C8        -8.6320   30.6890    5.4620 C.3   421  INH421      0.2350
      5  O8        -9.8060   30.7110    4.6840 O.3   421  INH421     -0.3560
      6  C9       -11.8510   32.0160    4.5140 C.3   421  INH421      0.2150
      7  O10      -11.1650   32.5650    3.3900 O.3   421  INH421     -0.2940
      8  P2       -11.5010   31.9990    1.9080 P.3   421  INH421      0.4010
      9  O3       -12.2370   30.6750    2.0270 O.2   421  INH421     -0.6310
     10  O7       -12.2250   33.1040    1.1300 O.3   421  INH421     -0.3070
     11  H        -13.0720   32.7660    0.8000 H     421  INH421      0.2220
     12  O11      -10.1100   31.8300    1.1720 O.3   421  INH421     -0.1950
     13  P1        -8.9950   30.7010    1.1230 P.3   421  INH421      0.3990
     14  O1        -7.5690   31.1180    0.8540 O.2   421  INH421     -0.6310
     15  O2        -9.4630   29.9810   -0.2360 O.3   421  INH421     -0.3070
     16  H        -10.1160   29.2940   -0.0310 H     421  INH421      0.2220
     17  O6        -9.3070   29.5920    2.0710 O.3   421  INH421     -0.3070
     18  H        -10.0640   29.8450    2.6240 H     421  INH421      0.2220
     19  O9       -10.9120   32.4280    7.6640 O.3   421  INH421     -0.3930
     20  H11      -10.4710   31.9720    8.3710 H     421  INH421      0.2100
     21  N2        -7.5680   31.3130    4.6760 N.ar  421  INH421     -0.2820
     22  C2        -7.5680   32.7210    4.4940 C.ar  421  INH421      0.1040
     23  C1        -6.5700   33.3990    3.7890 C.ar  421  INH421      0.0920
     24  C3        -5.5520   32.6190    3.2120 C.ar  421  INH421      0.2500
     25  O4        -4.6020   33.0900    2.5690 O.2   421  INH421     -0.2680
     26  N1        -5.5800   31.2510    3.4230 N.ar  421  INH421     -0.2750
     27  C4        -6.5620   30.5790    4.1320 C.ar  421  INH421      0.3310
     28  H10       -4.8350   30.7080    3.0340 H     421  INH421      0.1730
     29  O5        -6.5060   29.3530    4.2420 O.2   421  INH421     -0.2460
@<TRIPOS>BOND
     1    15    16    1
     2    15    13    1
     3    11    10    1
     4    14    13    2
     5    13    12    1
     6    13    17    1
     7    10     8    1
     8    12     8    1
     9     8     9    2
    10     8     7    1
    11    17    18    1
    12    25    24    2
    13    28    26    1
    14    24    26   ar
    15    24    23   ar
    16     7     6    1
    17    26    27   ar
    18    23    22   ar
    19    27    29    2
    20    27    21   ar
    21    22    21   ar
    22     6     3    1
    23    21     4    1
    24     5     3    1
    25     5     4    1
    26     3     2    1
    27     4     1    1
    28     2     1    1
    29     2    19    1
    30    19    20    1
