@<TRIPOS>MOLECULE
./ligand/1w3k_lig.pdb
 43 44 0 0 0
SMALL
GASTEIGER

@<TRIPOS>ATOM
      1  C1        61.3170   47.7350   36.3720 C.3   303  INH303      0.1341
      2  C2        60.6690   48.6770   37.3990 C.3   303  INH303      0.1141
      3  C3        59.1680   48.4110   37.5300 C.3   303  INH303      0.1119
      4  C4        58.9480   46.9260   37.8160 C.3   303  INH303      0.1130
      5  C5        57.4890   46.5200   37.9400 C.3   303  INH303      0.0730
      6  C6        60.9700   46.2910   36.7050 C.3   303  INH303      0.1884
      7  O1        62.7210   47.9140   36.3200 O.3   303  INH303     -0.3841
      8  O2        60.8770   50.0310   37.0260 O.3   303  INH303     -0.3864
      9  O3        58.6050   49.1900   38.5770 O.3   303  INH303     -0.3865
     10  O4        59.5490   46.1750   36.7550 O.3   303  INH303     -0.3405
     11  O5        56.8470   46.7590   36.6990 O.3   303  INH303     -0.3924
     12  C7        63.3200   43.9820   37.3350 C.3   303  INH303      0.0782
     13  C8        62.6850   43.5230   36.0370 C.3   303  INH303      0.1538
     14  C9        61.2830   44.1120   35.8030 C.3   303  INH303      0.1259
     15  C10       60.6870   43.5210   34.5170 C.3   303  INH303      0.1245
     16  C11       60.6940   41.9790   34.5970 C.3   303  INH303      0.0256
     17  O6        62.4830   43.6730   38.4460 O.3   303  INH303     -0.3922
     18  O7        62.5750   42.1090   36.1740 O.3   303  INH303     -0.3215
     19  O8        61.3510   45.5240   35.6570 O.3   303  INH303     -0.3398
     20  O9        59.3770   43.9260   34.2980 O.3   303  INH303     -0.3838
     21  N1        62.0470   41.5380   34.9520 N.4   303  INH303      0.3939
     22  H1        60.9050   47.9710   35.3800 H     303  INH303      0.0671
     23  H2        61.1420   48.5020   38.3770 H     303  INH303      0.0648
     24  H3        58.6730   48.6750   36.5840 H     303  INH303      0.0647
     25  H4        59.4510   46.6810   38.7640 H     303  INH303      0.0647
     26  H5        57.0050   47.1140   38.7290 H     303  INH303      0.0584
     27  H6        57.4220   45.4510   38.1930 H     303  INH303      0.0584
     28  H7        61.4420   45.9700   37.6450 H     303  INH303      0.0938
     29  H8        62.9170   48.8200   36.1110 H     303  INH303      0.2101
     30  H9        61.8090   50.1970   36.9440 H     303  INH303      0.2100
     31  H10       58.7440   50.1120   38.3950 H     303  INH303      0.2100
     32  H11       55.9330   46.5090   36.7620 H     303  INH303      0.2095
     33  H12       63.4780   45.0700   37.2940 H     303  INH303      0.0586
     34  H13       64.2880   43.4760   37.4610 H     303  INH303      0.0586
     35  H14       63.3330   43.7860   35.1880 H     303  INH303      0.0702
     36  H15       60.6380   43.8630   36.6590 H     303  INH303      0.0654
     37  H16       61.3050   43.8450   33.6670 H     303  INH303      0.0674
     38  H17       60.4090   41.5560   33.6230 H     303  INH303      0.0850
     39  H18       59.9810   41.6440   35.3650 H     303  INH303      0.0850
     40  H19       62.8990   43.9680   39.2480 H     303  INH303      0.2095
     41  H20       59.3430   44.8740   34.2440 H     303  INH303      0.2101
     42  H21       62.6660   41.7880   34.1970 H     303  INH303      0.2348
     43  H22       62.0320   40.5350   35.0560 H     303  INH303      0.2348
@<TRIPOS>BOND
     1     1     6    1
     2     1    22    1
     3     1     7    1
     4     1     2    1
     5     2    23    1
     6     2     8    1
     7     2     3    1
     8     3    24    1
     9     3     9    1
    10     3     4    1
    11     4    25    1
    12     4    10    1
    13     4     5    1
    14     5    27    1
    15     5    26    1
    16     5    11    1
    17     6    19    1
    18     6    28    1
    19     6    10    1
    20     7    29    1
    21     8    30    1
    22     9    31    1
    23    11    32    1
    24    12    34    1
    25    12    33    1
    26    12    17    1
    27    12    13    1
    28    13    35    1
    29    13    18    1
    30    13    14    1
    31    14    36    1
    32    14    19    1
    33    14    15    1
    34    15    37    1
    35    15    20    1
    36    15    16    1
    37    16    39    1
    38    16    38    1
    39    16    21    1
    40    17    40    1
    41    18    21    1
    42    20    41    1
    43    21    43    1
    44    21    42    1
