@<TRIPOS>MOLECULE
/tmp/ewbell/vina_1w3k_1w3k_lig/vina/vina5.pdbqt
 29 30 0 0 0
SMALL
GASTEIGER

@<TRIPOS>ATOM
      1  C1        61.6790   42.3740   36.3540 C.3   303  INH303      0.2040
      2  C2        62.2590   43.7620   36.0390 C.3   303  INH303      0.1830
      3  C3        61.3050   44.8760   36.4760 C.3   303  INH303      0.1800
      4  C4        60.9370   44.6700   37.9450 C.3   303  INH303      0.1790
      5  C6        61.2740   42.3040   37.8190 C.3   303  INH303      0.2920
      6  O4        60.3580   43.3670   38.0790 O.3   303  INH303     -0.3480
      7  O8        60.5580   41.1690   37.9940 O.3   303  INH303     -0.3480
      8  C9        60.9030   40.3220   39.0820 C.3   303  INH303      0.1880
      9  C8        60.6610   41.0350   40.4230 C.3   303  INH303      0.2130
     10  O7        61.0220   40.1570   41.4850 O.3   303  INH303     -0.1950
     11  N1        62.4320   39.8360   41.3970 N.4   303  INH303      0.0420
     12  C11       62.8280   39.1210   40.1790 C.3   303  INH303      0.3020
     13  H22       62.6720   39.2590   42.1890 H     303  INH303      0.3150
     14  H21       62.9530   40.6970   41.4380 H     303  INH303      0.3150
     15  C10       62.3890   39.9570   38.9560 C.3   303  INH303      0.1780
     16  C7        59.2010   41.3580   40.6770 C.3   303  INH303      0.2010
     17  O6        58.8930   42.6810   40.2480 O.3   303  INH303     -0.3980
     18  H19       58.9520   42.7300   39.3010 H     303  INH303      0.2090
     19  O9        62.6650   39.2130   37.8160 O.3   303  INH303     -0.3910
     20  H20       62.9150   39.7970   37.1100 H     303  INH303      0.2100
     21  O1        62.6010   41.3460   36.0390 O.3   303  INH303     -0.3880
     22  H8        63.4090   41.4870   36.5190 H     303  INH303      0.2100
     23  O2        62.5200   43.8840   34.6490 O.3   303  INH303     -0.3900
     24  H9        62.3120   43.0650   34.2150 H     303  INH303      0.2100
     25  C5        59.9650   45.6980   38.4990 C.3   303  INH303      0.1980
     26  O5        60.6950   46.8560   38.8660 O.3   303  INH303     -0.3980
     27  H11       61.6050   46.6240   39.0120 H     303  INH303      0.2090
     28  O3        61.9070   46.1530   36.3070 O.3   303  INH303     -0.3900
     29  H10       62.6130   46.2550   36.9340 H     303  INH303      0.2100
@<TRIPOS>BOND
     1    24    23    1
     2    23     2    1
     3     2     1    1
     4     2     3    1
     5    21     1    1
     6    21    22    1
     7    28     3    1
     8    28    29    1
     9     1     5    1
    10     3     4    1
    11    20    19    1
    12    19    15    1
    13     5     7    1
    14     5     6    1
    15     4     6    1
    16     4    25    1
    17     7     8    1
    18    25    26    1
    19    26    27    1
    20    15     8    1
    21    15    12    1
    22     8     9    1
    23    18    17    1
    24    12    11    1
    25    17    16    1
    26     9    16    1
    27     9    10    1
    28    11    14    1
    29    11    10    1
    30    11    13    1
