@<TRIPOS>MOLECULE
/tmp/ewbell/vina_1w3k_1w3k_lig/vina/vina4.pdbqt
 29 30 0 0 0
SMALL
GASTEIGER

@<TRIPOS>ATOM
      1  C1        61.2400   42.1550   35.9720 C.3   303  INH303      0.2040
      2  C2        61.3130   43.5320   35.2940 C.3   303  INH303      0.1830
      3  C3        60.2660   44.4900   35.8650 C.3   303  INH303      0.1800
      4  C4        60.4070   44.5320   37.3870 C.3   303  INH303      0.1790
      5  C6        61.3100   42.3190   37.4830 C.3   303  INH303      0.2920
      6  O4        60.2600   43.1980   37.8840 O.3   303  INH303     -0.3480
      7  O8        61.0040   41.1240   38.0410 O.3   303  INH303     -0.3480
      8  C9        61.4730   40.8620   39.3570 C.3   303  INH303      0.1880
      9  C8        62.2590   39.5410   39.4000 C.3   303  INH303      0.2130
     10  O7        62.7070   39.3120   40.7330 O.3   303  INH303     -0.1950
     11  N1        61.5680   39.1830   41.6170 N.4   303  INH303      0.0420
     12  C11       60.7210   40.3770   41.7140 C.3   303  INH303      0.3020
     13  H22       61.9100   38.9670   42.5410 H     303  INH303      0.3150
     14  H21       60.9970   38.4210   41.2840 H     303  INH303      0.3150
     15  C10       60.2580   40.7650   40.2920 C.3   303  INH303      0.1780
     16  C7        63.5300   39.5720   38.5730 C.3   303  INH303      0.2010
     17  O6        63.2460   39.3300   37.1980 O.3   303  INH303     -0.3980
     18  H19       63.9950   38.9150   36.7860 H     303  INH303      0.2090
     19  O9        59.5590   41.9610   40.3880 O.3   303  INH303     -0.3910
     20  H20       59.7950   42.5260   39.6630 H     303  INH303      0.2100
     21  O1        62.2700   41.2980   35.5130 O.3   303  INH303     -0.3880
     22  H8        62.4550   41.4850   34.5990 H     303  INH303      0.2100
     23  O2        61.1190   43.4030   33.8930 O.3   303  INH303     -0.3900
     24  H9        61.5070   44.1480   33.4500 H     303  INH303      0.2100
     25  C5        59.4000   45.4300   38.0860 C.3   303  INH303      0.1980
     26  O5        58.4300   45.8430   37.1380 O.3   303  INH303     -0.3980
     27  H11       58.8590   46.0630   36.3200 H     303  INH303      0.2090
     28  O3        60.4300   45.7970   35.3320 O.3   303  INH303     -0.3900
     29  H10       59.5820   46.1450   35.0820 H     303  INH303      0.2100
@<TRIPOS>BOND
     1    24    23    1
     2    23     2    1
     3    22    21    1
     4    29    28    1
     5     2     3    1
     6     2     1    1
     7    28     3    1
     8    21     1    1
     9     3     4    1
    10     1     5    1
    11    27    26    1
    12    18    17    1
    13    26    25    1
    14    17    16    1
    15     4     6    1
    16     4    25    1
    17     5     6    1
    18     5     7    1
    19     7     8    1
    20    16     9    1
    21     8     9    1
    22     8    15    1
    23     9    10    1
    24    20    19    1
    25    15    19    1
    26    15    12    1
    27    10    11    1
    28    14    11    1
    29    11    12    1
    30    11    13    1
