@<TRIPOS>MOLECULE
/tmp/ewbell/vina_1w3k_1w3k_lig/vina/vina2.pdbqt
 29 30 0 0 0
SMALL
GASTEIGER

@<TRIPOS>ATOM
      1  C1        61.3260   47.4420   36.2970 C.3   303  INH303      0.2040
      2  C2        60.6400   48.3780   37.3060 C.3   303  INH303      0.1830
      3  C3        59.1320   48.1270   37.3630 C.3   303  INH303      0.1800
      4  C4        58.8830   46.6410   37.6180 C.3   303  INH303      0.1790
      5  C6        60.9480   45.9980   36.5940 C.3   303  INH303      0.2920
      6  O4        59.5250   45.8970   36.5760 O.3   303  INH303     -0.3480
      7  O8        61.3700   45.2400   35.5550 O.3   303  INH303     -0.3480
      8  C9        61.9420   43.9710   35.8410 C.3   303  INH303      0.1880
      9  C8        60.8430   42.9280   36.1070 C.3   303  INH303      0.2130
     10  O7        61.4560   41.6740   36.3940 O.3   303  INH303     -0.1950
     11  N1        62.2640   41.7870   37.5900 N.4   303  INH303      0.0420
     12  C11       63.3840   42.7290   37.4930 C.3   303  INH303      0.3020
     13  H22       62.6410   40.8750   37.8010 H     303  INH303      0.3150
     14  H21       61.6680   42.0860   38.3450 H     303  INH303      0.3150
     15  C10       62.8270   44.1110   37.0880 C.3   303  INH303      0.1780
     16  C7        59.9690   42.6560   34.8980 C.3   303  INH303      0.2010
     17  O6        59.3210   43.8480   34.4630 O.3   303  INH303     -0.3980
     18  H19       59.6240   44.5830   34.9830 H     303  INH303      0.2090
     19  O9        63.9080   44.9590   36.8870 O.3   303  INH303     -0.3910
     20  H20       64.6970   44.4440   36.7620 H     303  INH303      0.2100
     21  O1        62.7320   47.6060   36.3140 O.3   303  INH303     -0.3880
     22  H8        62.9430   48.5120   36.5080 H     303  INH303      0.2100
     23  O2        60.8800   49.7340   36.9610 O.3   303  INH303     -0.3900
     24  H9        60.2890   49.9920   36.2630 H     303  INH303      0.2100
     25  C5        57.4160   46.2490   37.6680 C.3   303  INH303      0.1980
     26  O5        56.6900   47.1120   36.8090 O.3   303  INH303     -0.3980
     27  H11       55.7680   47.0870   37.0400 H     303  INH303      0.2090
     28  O3        58.5290   48.8980   38.3930 O.3   303  INH303     -0.3900
     29  H10       58.4350   49.7970   38.1010 H     303  INH303      0.2100
@<TRIPOS>BOND
     1    17    16    1
     2    17    18    1
     3    16     9    1
     4     7     8    1
     5     7     5    1
     6     8     9    1
     7     8    15    1
     8     9    10    1
     9    24    23    1
    10     1    21    1
    11     1     5    1
    12     1     2    1
    13    21    22    1
    14    10    11    1
    15     6     5    1
    16     6     4    1
    17    20    19    1
    18    26    27    1
    19    26    25    1
    20    19    15    1
    21    23     2    1
    22    15    12    1
    23     2     3    1
    24     3     4    1
    25     3    28    1
    26    12    11    1
    27    11    13    1
    28    11    14    1
    29     4    25    1
    30    29    28    1
