@<TRIPOS>MOLECULE
/tmp/ewbell/vina_1w3k_1w3k_lig/vina/vina3.pdbqt
 29 30 0 0 0
SMALL
GASTEIGER

@<TRIPOS>ATOM
      1  C1        62.0910   39.2720   40.0790 C.3   303  INH303      0.2040
      2  C2        63.2660   38.4760   40.6680 C.3   303  INH303      0.1830
      3  C3        63.9680   37.6410   39.5950 C.3   303  INH303      0.1800
      4  C4        64.3490   38.5500   38.4270 C.3   303  INH303      0.1790
      5  C6        62.5630   40.0780   38.8780 C.3   303  INH303      0.2920
      6  O4        63.1560   39.1770   37.9430 O.3   303  INH303     -0.3480
      7  O8        61.4670   40.5660   38.2520 O.3   303  INH303     -0.3480
      8  C9        61.5020   41.9100   37.7930 C.3   303  INH303      0.1880
      9  C8        60.2100   42.6500   38.1800 C.3   303  INH303      0.2130
     10  O7        60.2820   43.9890   37.6990 O.3   303  INH303     -0.1950
     11  N1        60.3810   43.9860   36.2550 N.4   303  INH303      0.0420
     12  C11       61.5820   43.3380   35.7180 C.3   303  INH303      0.3020
     13  H22       60.3750   44.9440   35.9380 H     303  INH303      0.3150
     14  H21       59.5750   43.5060   35.8860 H     303  INH303      0.3150
     15  C10       61.6450   41.8950   36.2650 C.3   303  INH303      0.1780
     16  C7        60.0260   42.7930   39.6780 C.3   303  INH303      0.2010
     17  O6        61.2830   42.9470   40.3310 O.3   303  INH303     -0.3980
     18  H19       61.2120   43.6160   41.0030 H     303  INH303      0.2090
     19  O9        62.8450   41.3370   35.8440 O.3   303  INH303     -0.3910
     20  H20       62.6720   40.5310   35.3720 H     303  INH303      0.2100
     21  O1        61.5010   40.1180   41.0500 O.3   303  INH303     -0.3880
     22  H8        62.1840   40.5830   41.5210 H     303  INH303      0.2100
     23  O2        62.8120   37.6220   41.7070 O.3   303  INH303     -0.3900
     24  H9        61.9390   37.8860   41.9750 H     303  INH303      0.2100
     25  C5        65.0310   37.8350   37.2720 C.3   303  INH303      0.1980
     26  O5        64.7360   36.4520   37.3600 O.3   303  INH303     -0.3980
     27  H11       64.6150   36.0970   36.4870 H     303  INH303      0.2090
     28  O3        65.1330   37.0180   40.1190 O.3   303  INH303     -0.3900
     29  H10       65.7350   37.6840   40.4280 H     303  INH303      0.2100
@<TRIPOS>BOND
     1    20    19    1
     2    12    11    1
     3    12    15    1
     4    19    15    1
     5    14    11    1
     6    13    11    1
     7    11    10    1
     8    15     8    1
     9    27    26    1
    10    25    26    1
    11    25     4    1
    12    10     9    1
    13     8     9    1
    14     8     7    1
    15     6     4    1
    16     6     5    1
    17     9    16    1
    18     7     5    1
    19     4     3    1
    20     5     1    1
    21     3    28    1
    22     3     2    1
    23    16    17    1
    24     1     2    1
    25     1    21    1
    26    28    29    1
    27    17    18    1
    28     2    23    1
    29    21    22    1
    30    23    24    1
