@<TRIPOS>MOLECULE
/tmp/ewbell/vina_1w3k_1w3k_lig/vina/vina1.pdbqt
 29 30 0 0 0
SMALL
GASTEIGER

@<TRIPOS>ATOM
      1  C1        61.3400   47.6890   36.4320 C.3   303  INH303      0.2040
      2  C2        60.5710   48.6670   37.3330 C.3   303  INH303      0.1830
      3  C3        59.0710   48.3650   37.3310 C.3   303  INH303      0.1800
      4  C4        58.8580   46.8920   37.6790 C.3   303  INH303      0.1790
      5  C6        60.9960   46.2560   36.8120 C.3   303  INH303      0.2920
      6  O4        59.5800   46.1010   36.7280 O.3   303  INH303     -0.3480
      7  O8        61.4980   45.4430   35.8540 O.3   303  INH303     -0.3480
      8  C9        61.2650   44.0460   35.9730 C.3   303  INH303      0.1880
      9  C8        62.5810   43.2990   36.2480 C.3   303  INH303      0.2130
     10  O7        62.3070   41.9050   36.3560 O.3   303  INH303     -0.1950
     11  N1        61.7670   41.4140   35.1050 N.4   303  INH303      0.0420
     12  C11       60.4870   42.0090   34.7080 C.3   303  INH303      0.3020
     13  H22       61.6340   40.4170   35.1910 H     303  INH303      0.3150
     14  H21       62.4390   41.6010   34.3780 H     303  INH303      0.3150
     15  C10       60.6570   43.5440   34.6550 C.3   303  INH303      0.1780
     16  C7        63.2130   43.6660   37.5770 C.3   303  INH303      0.2010
     17  O6        62.2210   43.7980   38.5910 O.3   303  INH303     -0.3980
     18  H19       62.0920   44.7180   38.7910 H     303  INH303      0.2090
     19  O9        59.4110   44.0970   34.3940 O.3   303  INH303     -0.3910
     20  H20       58.7940   43.8190   35.0610 H     303  INH303      0.2100
     21  O1        62.7380   47.9050   36.5090 O.3   303  INH303     -0.3880
     22  H8        63.1520   47.5820   35.7170 H     303  INH303      0.2100
     23  O2        60.7830   50.0040   36.9050 O.3   303  INH303     -0.3900
     24  H9        60.2310   50.5890   37.4100 H     303  INH303      0.2100
     25  C5        57.4040   46.4520   37.6820 C.3   303  INH303      0.1980
     26  O5        56.6960   47.2280   36.7310 O.3   303  INH303     -0.3980
     27  H11       56.6790   46.7710   35.8980 H     303  INH303      0.2090
     28  O3        58.3870   49.1840   38.2700 O.3   303  INH303     -0.3900
     29  H10       57.7000   48.6790   38.6880 H     303  INH303      0.2100
@<TRIPOS>BOND
     1    14    11    1
     2    19    15    1
     3    19    20    1
     4    15    12    1
     5    15     8    1
     6    12    11    1
     7    11    13    1
     8    11    10    1
     9    22    21    1
    10     7     8    1
    11     7     5    1
    12    27    26    1
    13     8     9    1
    14     9    10    1
    15     9    16    1
    16     1    21    1
    17     1     5    1
    18     1     2    1
    19     6     5    1
    20     6     4    1
    21    26    25    1
    22    23     2    1
    23    23    24    1
    24     3     2    1
    25     3     4    1
    26     3    28    1
    27    16    17    1
    28     4    25    1
    29    28    29    1
    30    17    18    1
