@<TRIPOS>MOLECULE
./ligand/2pwd_lig.pdb
 25 25 0 0 0
SMALL
GASTEIGER

@<TRIPOS>ATOM
      1  N1         6.9210    4.2250    3.9460 N.4   560  INH560      0.2346
      2  C1         7.2400    5.5640    3.4760 C.3   560  INH560      0.0301
      3  C2         8.1990    6.1920    4.5040 C.3   560  INH560      0.0893
      4  O1         7.4640    6.1380    5.7720 O.3   560  INH560     -0.3894
      5  H1         7.7470    5.4920    2.5030 H     560  INH560      0.0900
      6  H2         7.7760    3.6930    3.9970 H     560  INH560      0.2019
      7  H3         6.5160    4.2990    4.8660 H     560  INH560      0.2019
      8  H4         8.4320    7.2330    4.2340 H     560  INH560      0.0614
      9  H5         9.1320    5.6130    4.5700 H     560  INH560      0.0614
     10  H6         7.2750    5.2330    5.9890 H     560  INH560      0.2097
     11  C3         4.6440    4.3300    2.9520 C.3   560  INH560      0.1231
     12  C4         4.9660    5.7160    2.3550 C.3   560  INH560      0.1171
     13  C5         5.9570    6.4470    3.3000 C.3   560  INH560      0.1280
     14  O2         3.7180    3.6460    2.1370 O.3   560  INH560     -0.3838
     15  C6         5.9730    3.5020    3.0760 C.3   560  INH560     -0.0040
     16  O3         3.7900    6.5230    2.2090 O.3   560  INH560     -0.3862
     17  O4         6.2860    7.7570    2.7580 O.3   560  INH560     -0.3835
     18  H7         6.4180    3.3700    2.0790 H     560  INH560      0.0840
     19  H8         5.7520    2.5170    3.5130 H     560  INH560      0.0840
     20  H9         4.2070    4.4620    3.9530 H     560  INH560      0.0674
     21  H10        4.0840    3.5370    1.2680 H     560  INH560      0.2101
     22  H11        5.4310    5.5800    1.3670 H     560  INH560      0.0649
     23  H12        3.1830    6.0920    1.6190 H     560  INH560      0.2100
     24  H13        5.4830    6.5830    4.2830 H     560  INH560      0.0678
     25  H14        6.8800    8.2030    3.3490 H     560  INH560      0.2102
@<TRIPOS>BOND
     1     1     7    1
     2     1     6    1
     3     1     2    1
     4     1    15    1
     5     2    13    1
     6     2     3    1
     7     2     5    1
     8     3     4    1
     9     3     9    1
    10     3     8    1
    11     4    10    1
    12    11    15    1
    13    11    20    1
    14    11    12    1
    15    11    14    1
    16    12    22    1
    17    12    13    1
    18    12    16    1
    19    13    24    1
    20    13    17    1
    21    14    21    1
    22    15    19    1
    23    15    18    1
    24    16    23    1
    25    17    25    1
