@<TRIPOS>MOLECULE
/tmp/ewbell/vina_2pwd_2pwd_lig/vina/vina3.pdbqt
 17 17 0 0 0
SMALL
GASTEIGER

@<TRIPOS>ATOM
      1  N1         9.3150    3.0260    0.0690 N.4   560  INH560     -0.0640
      2  C1         8.5160    3.7410   -0.9140 C.3   560  INH560      0.2400
      3  H2         9.7980    2.2740   -0.3990 H     560  INH560      0.2770
      4  H3         9.9880    3.6670    0.4590 H     560  INH560      0.2770
      5  C3         7.7300    3.6010    1.8960 C.3   560  INH560      0.1750
      6  C4         6.8030    4.2950    0.8770 C.3   560  INH560      0.1790
      7  C5         7.6720    4.8900   -0.2630 C.3   560  INH560      0.1820
      8  C6         8.5210    2.4530    1.1740 C.3   560  INH560      0.2670
      9  C2         9.4860    4.3050   -1.9680 C.3   560  INH560      0.1990
     10  O1         8.7480    4.2170   -3.2320 O.3   560  INH560     -0.3990
     11  H6         8.0130    4.8180   -3.2100 H     560  INH560      0.2090
     12  O4         6.8230    5.5460   -1.2460 O.3   560  INH560     -0.3910
     13  H14        6.3290    6.2380   -0.8240 H     560  INH560      0.2100
     14  O3         6.0440    5.3540    1.4760 O.3   560  INH560     -0.3900
     15  H12        5.1600    5.0510    1.6470 H     560  INH560      0.2100
     16  O2         6.9780    3.0750    2.9680 O.3   560  INH560     -0.3910
     17  H10        6.6680    3.7870    3.5140 H     560  INH560      0.2100
@<TRIPOS>BOND
     1    10    11    1
     2    10     9    1
     3     9     2    1
     4    12    13    1
     5    12     7    1
     6     2     7    1
     7     2     1    1
     8     3     1    1
     9     7     6    1
    10     1     4    1
    11     1     8    1
    12     6    14    1
    13     6     5    1
    14     8     5    1
    15    14    15    1
    16     5    16    1
    17    16    17    1
