@<TRIPOS>MOLECULE
/tmp/ewbell/vina_2pwd_2pwd_lig/vina/vina4.pdbqt
 17 17 0 0 0
SMALL
GASTEIGER

@<TRIPOS>ATOM
      1  N1         8.0240    5.2560    2.7060 N.4   560  INH560     -0.0640
      2  C1         7.2710    4.0440    2.9880 C.3   560  INH560      0.2400
      3  H2         8.9330    5.1730    3.1340 H     560  INH560      0.2770
      4  H3         8.1280    5.3400    1.7070 H     560  INH560      0.2770
      5  C3         5.9450    6.6170    2.5860 C.3   560  INH560      0.1750
      6  C4         5.1100    5.3780    2.9720 C.3   560  INH560      0.1790
      7  C5         5.8130    4.1110    2.4170 C.3   560  INH560      0.1820
      8  C6         7.3800    6.4840    3.2120 C.3   560  INH560      0.2670
      9  C2         8.0480    2.8690    2.3660 C.3   560  INH560      0.1990
     10  O1         7.4090    2.6550    1.0640 O.3   560  INH560     -0.3990
     11  H6         6.5970    2.1780    1.1850 H     560  INH560      0.2090
     12  O4         5.0500    2.9230    2.7720 O.3   560  INH560     -0.3910
     13  H14        4.1240    3.1330    2.7780 H     560  INH560      0.2100
     14  O3         3.7820    5.4400    2.4360 O.3   560  INH560     -0.3900
     15  H12        3.7850    5.9640    1.6430 H     560  INH560      0.2100
     16  O2         5.3200    7.7950    3.0460 O.3   560  INH560     -0.3910
     17  H10        4.6260    8.0370    2.4460 H     560  INH560      0.2100
@<TRIPOS>BOND
     1    10    11    1
     2    10     9    1
     3    15    14    1
     4     4     1    1
     5     9     2    1
     6     7    12    1
     7     7     6    1
     8     7     2    1
     9    14     6    1
    10    17    16    1
    11     5     6    1
    12     5    16    1
    13     5     8    1
    14     1     2    1
    15     1     3    1
    16     1     8    1
    17    12    13    1
