@<TRIPOS>MOLECULE
/tmp/ewbell/vina_2pwd_2pwd_lig/vina/vina1.pdbqt
 17 17 0 0 0
SMALL
GASTEIGER

@<TRIPOS>ATOM
      1  N1         7.6520    4.0780    4.1600 N.4   560  INH560     -0.0640
      2  C1         7.7650    5.4980    3.8660 C.3   560  INH560      0.2400
      3  H2         8.2720    3.8600    4.9240 H     560  INH560      0.2770
      4  H3         6.7010    3.8850    4.4330 H     560  INH560      0.2770
      5  C3         7.0650    3.5540    1.8010 C.3   560  INH560      0.1750
      6  C4         7.2620    5.0360    1.4200 C.3   560  INH560      0.1790
      7  C5         6.8830    5.9180    2.6400 C.3   560  INH560      0.1820
      8  C6         7.9950    3.2080    3.0180 C.3   560  INH560      0.2670
      9  C2         7.3390    6.2620    5.1330 C.3   560  INH560      0.1990
     10  O1         8.2220    7.4320    5.1720 O.3   560  INH560     -0.3990
     11  H6         7.8330    8.1370    4.6700 H     560  INH560      0.2090
     12  O4         7.0660    7.3240    2.3130 O.3   560  INH560     -0.3910
     13  H14        7.8640    7.6420    2.7190 H     560  INH560      0.2100
     14  O3         6.4420    5.4170    0.3070 O.3   560  INH560     -0.3900
     15  H12        5.9660    6.2100    0.5220 H     560  INH560      0.2100
     16  O2         7.3670    2.7200    0.7040 O.3   560  INH560     -0.3910
     17  H10        7.8960    1.9900    1.0010 H     560  INH560      0.2100
@<TRIPOS>BOND
     1    14    15    1
     2    14     6    1
     3    16    17    1
     4    16     5    1
     5     6     5    1
     6     6     7    1
     7     5     8    1
     8    12     7    1
     9    12    13    1
    10     7     2    1
    11     8     1    1
    12     2     1    1
    13     2     9    1
    14     1     4    1
    15     1     3    1
    16    11    10    1
    17     9    10    1
