@<TRIPOS>MOLECULE
/tmp/ewbell/vina_2pwd_2pwd_lig/vina/vina5.pdbqt
 17 17 0 0 0
SMALL
GASTEIGER

@<TRIPOS>ATOM
      1  N1         7.0180    5.3370    0.9420 N.4   560  INH560     -0.0640
      2  C1         7.7730    4.1260    0.6600 C.3   560  INH560      0.2400
      3  H2         7.2370    6.0210    0.2330 H     560  INH560      0.2770
      4  H3         6.0360    5.1160    0.9040 H     560  INH560      0.2770
      5  C3         7.0140    4.8640    3.3830 C.3   560  INH560      0.1750
      6  C4         7.8910    3.6170    3.1450 C.3   560  INH560      0.1790
      7  C5         7.5470    3.0250    1.7530 C.3   560  INH560      0.1820
      8  C6         7.3130    5.9240    2.2630 C.3   560  INH560      0.2670
      9  C2         7.3250    3.6220   -0.7250 C.3   560  INH560      0.1990
     10  O1         6.3270    2.5880   -0.4330 O.3   560  INH560     -0.3990
     11  H6         5.6180    2.9670    0.0720 H     560  INH560      0.2090
     12  O4         8.3660    1.8490    1.4960 O.3   560  INH560     -0.3910
     13  H14        9.1060    2.0920    0.9530 H     560  INH560      0.2100
     14  O3         7.6710    2.6090    4.1410 O.3   560  INH560     -0.3900
     15  H12        7.9280    1.7630    3.7950 H     560  INH560      0.2100
     16  O2         7.2740    5.4140    4.6560 O.3   560  INH560     -0.3910
     17  H10        6.6220    6.0750    4.8530 H     560  INH560      0.2100
@<TRIPOS>BOND
     1     9    10    1
     2     9     2    1
     3    10    11    1
     4     3     1    1
     5     2     1    1
     6     2     7    1
     7     4     1    1
     8     1     8    1
     9    13    12    1
    10    12     7    1
    11     7     6    1
    12     8     5    1
    13     6     5    1
    14     6    14    1
    15     5    16    1
    16    15    14    1
    17    16    17    1
