@<TRIPOS>MOLECULE
/tmp/ewbell/vina_2pwd_2pwd_lig/vina/vina2.pdbqt
 17 17 0 0 0
SMALL
GASTEIGER

@<TRIPOS>ATOM
      1  N1         6.4470    2.9750    0.5470 N.4   560  INH560     -0.0640
      2  C1         7.0350    4.0190    1.3710 C.3   560  INH560      0.2400
      3  H2         6.4590    2.1120    1.0690 H     560  INH560      0.2770
      4  H3         5.4930    3.2300    0.3430 H     560  INH560      0.2770
      5  C3         7.1800    4.0990   -1.5460 C.3   560  INH560      0.1750
      6  C4         7.8980    5.1830   -0.7150 C.3   560  INH560      0.1790
      7  C5         7.1210    5.3880    0.6130 C.3   560  INH560      0.1820
      8  C6         7.1550    2.7580   -0.7290 C.3   560  INH560      0.2670
      9  C2         6.1660    4.1480    2.6350 C.3   560  INH560      0.1990
     10  O1         5.1840    3.0650    2.5170 O.3   560  INH560     -0.3990
     11  H6         4.8870    2.8120    3.3830 H     560  INH560      0.2090
     12  O4         7.7800    6.4020    1.4230 O.3   560  INH560     -0.3910
     13  H14        8.5200    6.7550    0.9460 H     560  INH560      0.2100
     14  O3         7.9610    6.4360   -1.4090 O.3   560  INH560     -0.3900
     15  H12        8.0540    7.1410   -0.7790 H     560  INH560      0.2100
     16  O2         7.8380    3.9070   -2.7780 O.3   560  INH560     -0.3910
     17  H10        8.7740    4.0090   -2.6540 H     560  INH560      0.2100
@<TRIPOS>BOND
     1    16    17    1
     2    16     5    1
     3     5     8    1
     4     5     6    1
     5    14    15    1
     6    14     6    1
     7     8     1    1
     8     6     7    1
     9     4     1    1
    10     1     3    1
    11     1     2    1
    12     7     2    1
    13     7    12    1
    14    13    12    1
    15     2     9    1
    16    10     9    1
    17    10    11    1
