@<TRIPOS>MOLECULE
./ligand/2qi4_lig.pdb
 72 75 0 0 0
SMALL
GASTEIGER

@<TRIPOS>ATOM
      1  O1        21.4760   29.9050   12.2310 O.2   203  INH203     -0.2702
      2  C1        21.3670   28.7580   12.6410 C.2   203  INH203      0.2445
      3  C2        22.1510   27.6830   11.9740 C.ar  203  INH203      0.0401
      4  C3        23.4940   27.7990   11.6830 C.ar  203  INH203     -0.0081
      5  C4        24.1310   26.7550   11.0190 C.ar  203  INH203      0.1176
      6  O2        25.4460   26.8580   10.7410 O.3   203  INH203     -0.5067
      7  C5        23.4420   25.6030   10.6470 C.ar  203  INH203     -0.0201
      8  C6        22.0890   25.4830   10.9390 C.ar  203  INH203     -0.0576
      9  C7        21.4480   26.5320   11.5880 C.ar  203  INH203     -0.0494
     10  N1        20.5580   28.3660   13.6150 N.am  203  INH203     -0.3057
     11  C8        19.6170   29.2450   14.2860 C.3   203  INH203      0.0545
     12  C9        18.3080   28.4450   14.2070 C.3   203  INH203     -0.0067
     13  C10       17.9840   28.1020   12.7470 C.ar  203  INH203     -0.0455
     14  C11       17.5730   29.0860   11.8520 C.ar  203  INH203     -0.0585
     15  C12       17.2890   28.7640   10.5240 C.ar  203  INH203     -0.0615
     16  C13       17.4080   27.4510   10.0830 C.ar  203  INH203     -0.0617
     17  C14       17.8120   26.4670   10.9730 C.ar  203  INH203     -0.0615
     18  C15       18.0900   26.7890   12.2960 C.ar  203  INH203     -0.0585
     19  C16       20.0650   29.5980   15.6920 C.3   203  INH203      0.0881
     20  O3        20.0150   28.4250   16.5180 O.3   203  INH203     -0.3886
     21  C17       19.1980   30.7250   16.2840 C.3   203  INH203      0.0483
     22  N2        19.4380   31.9630   15.4970 N.3   203  INH203     -0.1738
     23  C18       20.1530   33.0000   16.2810 C.3   203  INH203      0.0232
     24  C19       21.6520   32.6580   16.3160 C.3   203  INH203     -0.0297
     25  C20       22.3900   33.5920   17.2860 C.3   203  INH203     -0.0521
     26  C21       22.1950   35.0700   17.0060 C.3   203  INH203     -0.0650
     27  C22       22.3000   32.6680   14.9290 C.3   203  INH203     -0.0612
     28  S1        18.0900   32.5750   14.7950 S.O2  203  INH203      0.0610
     29  O4        17.3350   31.4910   14.2590 O.2   203  INH203     -0.1528
     30  O5        18.5620   33.4330   13.7410 O.2   203  INH203     -0.1528
     31  C23       17.2020   33.4440   15.8720 C.ar  203  INH203      0.1067
     32  C24       16.2480   32.7630   16.6300 C.ar  203  INH203     -0.0333
     33  C25       15.4790   33.4180   17.5920 C.ar  203  INH203     -0.0334
     34  C26       15.6200   34.7770   17.8240 C.ar  203  INH203      0.0783
     35  C27       16.5560   35.5130   17.0860 C.ar  203  INH203      0.0408
     36  C28       17.3480   34.8400   16.1140 C.ar  203  INH203     -0.0195
     37  N3        14.9680   35.5770   18.7000 N.ar  203  INH203     -0.2474
     38  C29       15.3770   36.8600   18.6450 C.ar  203  INH203      0.0659
     39  S2        16.6230   37.1790   17.4730 S.2   203  INH203     -0.0754
     40  H1        24.0440   28.6890   11.9670 H     203  INH203      0.0661
     41  H2        25.7360   26.0740   10.2890 H     203  INH203      0.2921
     42  H3        23.9600   24.8020   10.1310 H     203  INH203      0.0654
     43  H4        21.5430   24.5870   10.6660 H     203  INH203      0.0619
     44  H5        20.3870   26.4590   11.7990 H     203  INH203      0.0625
     45  H6        20.5980   27.4100   13.9050 H     203  INH203      0.1494
     46  H7        19.5090   30.1840   13.7240 H     203  INH203      0.0527
     47  H8        17.4890   29.0460   14.6300 H     203  INH203      0.0332
     48  H9        18.4160   27.5140   14.7840 H     203  INH203      0.0332
     49  H10       17.4730   30.1110   12.1890 H     203  INH203      0.0620
     50  H11       16.9750   29.5390    9.8350 H     203  INH203      0.0618
     51  H12       17.1870   27.1980    9.0520 H     203  INH203      0.0618
     52  H13       17.9110   25.4420   10.6350 H     203  INH203      0.0618
     53  H14       18.3930   26.0090   12.9850 H     203  INH203      0.0620
     54  H15       21.1060   29.9510   15.6490 H     203  INH203      0.0625
     55  H16       19.1200   28.1080   16.5640 H     203  INH203      0.2099
     56  H17       18.1350   30.4470   16.2240 H     203  INH203      0.0470
     57  H18       19.4750   30.8930   17.3350 H     203  INH203      0.0470
     58  H19       19.7570   33.0250   17.3070 H     203  INH203      0.0446
     59  H20       20.0100   33.9830   15.8090 H     203  INH203      0.0446
     60  H21       21.7440   31.6340   16.7070 H     203  INH203      0.0311
     61  H22       23.4660   33.3700   17.2260 H     203  INH203      0.0266
     62  H23       22.0290   33.3850   18.3040 H     203  INH203      0.0266
     63  H24       22.7560   35.6600   17.7450 H     203  INH203      0.0230
     64  H25       21.1250   35.3180   17.0740 H     203  INH203      0.0230
     65  H26       22.5620   35.3030   15.9960 H     203  INH203      0.0230
     66  H27       21.7480   31.9900   14.2610 H     203  INH203      0.0233
     67  H28       23.3440   32.3330   15.0100 H     203  INH203      0.0233
     68  H29       22.2730   33.6880   14.5190 H     203  INH203      0.0233
     69  H30       16.1010   31.7010   16.4670 H     203  INH203      0.0638
     70  H31       14.7570   32.8530   18.1700 H     203  INH203      0.0640
     71  H32       18.0790   35.4030   15.5450 H     203  INH203      0.0649
     72  H33       14.9600   37.6370   19.2840 H     203  INH203      0.0907
@<TRIPOS>BOND
     1     1     2    2
     2     2    10   am
     3     2     3    1
     4     3     9   ar
     5     3     4   ar
     6     4    40    1
     7     4     5   ar
     8     5     7   ar
     9     5     6    1
    10     6    41    1
    11     7    42    1
    12     7     8   ar
    13     8    43    1
    14     8     9   ar
    15     9    44    1
    16    10    45    1
    17    10    11    1
    18    11    46    1
    19    11    19    1
    20    11    12    1
    21    12    48    1
    22    12    47    1
    23    12    13    1
    24    13    18   ar
    25    13    14   ar
    26    14    49    1
    27    14    15   ar
    28    15    50    1
    29    15    16   ar
    30    16    51    1
    31    16    17   ar
    32    17    52    1
    33    17    18   ar
    34    18    53    1
    35    19    54    1
    36    19    21    1
    37    19    20    1
    38    20    55    1
    39    21    57    1
    40    21    56    1
    41    21    22    1
    42    22    28    1
    43    22    23    1
    44    23    59    1
    45    23    58    1
    46    23    24    1
    47    24    60    1
    48    24    27    1
    49    24    25    1
    50    25    62    1
    51    25    61    1
    52    25    26    1
    53    26    65    1
    54    26    64    1
    55    26    63    1
    56    27    68    1
    57    27    67    1
    58    27    66    1
    59    28    31    1
    60    28    30    2
    61    28    29    2
    62    31    36   ar
    63    31    32   ar
    64    32    69    1
    65    32    33   ar
    66    33    70    1
    67    33    34   ar
    68    34    37   ar
    69    34    35   ar
    70    35    39   ar
    71    35    36   ar
    72    36    71    1
    73    37    38   ar
    74    38    39   ar
    75    38    72    1
