@<TRIPOS>MOLECULE
/tmp/ewbell/vina_2qi4_2qi4_lig/vina/vina1.pdbqt
 43 46 0 0 0
SMALL
GASTEIGER

@<TRIPOS>ATOM
      1  C16       18.5400   33.7130   15.2410 C.3   203  INH203      0.1550
      2  C8        18.0940   34.3190   16.5590 C.3   203  INH203      0.1180
      3  N1        16.9040   33.6740   17.0850 N.am  203  INH203     -0.3490
      4  C1        15.9590   34.3110   17.7620 C.2   203  INH203      0.2520
      5  O1        14.9410   33.7990   18.2050 O.2   203  INH203     -0.2680
      6  H6        16.7910   32.6930   16.9260 H     203  INH203      0.1630
      7  C2        16.1530   35.7770   17.9280 C.ar  203  INH203      0.0340
      8  C7        16.5680   36.4940   16.7950 C.ar  203  INH203      0.0170
      9  C6        16.7560   37.8710   16.8460 C.ar  203  INH203      0.0040
     10  C5        16.4950   38.5390   18.0360 C.ar  203  INH203      0.0360
     11  C4        16.0690   37.8230   19.1540 C.ar  203  INH203      0.0660
     12  C3        15.8960   36.4430   19.1080 C.ar  203  INH203      0.0530
     13  O2        15.8290   38.4790   20.3070 O.3   203  INH203     -0.3610
     14  H2        15.2970   37.9340   20.8750 H     203  INH203      0.2170
     15  C9        19.0920   34.1560   17.7150 C.3   203  INH203      0.0660
     16  C10       19.8770   35.4580   17.9250 C.ar  203  INH203     -0.0560
     17  C15       19.6510   36.2370   19.0580 C.ar  203  INH203      0.0070
     18  C14       20.3450   37.4240   19.2540 C.ar  203  INH203      0.0010
     19  C13       21.2880   37.8450   18.3280 C.ar  203  INH203      0.0000
     20  C12       21.5300   37.0710   17.1990 C.ar  203  INH203      0.0010
     21  C11       20.8280   35.8810   17.0020 C.ar  203  INH203      0.0070
     22  C17       18.7410   32.1910   15.3700 C.3   203  INH203      0.1410
     23  N2        19.9220   31.8050   14.5560 N.3   203  INH203     -0.2040
     24  S1        19.5520   31.3470   13.0270 S.O2  203  INH203      0.2430
     25  O5        18.1250   31.1730   13.0120 O.2   203  INH203     -0.2060
     26  O4        19.9390   32.3950   12.1410 O.2   203  INH203     -0.2060
     27  C23       20.2950   29.9330   12.6340 C.ar  203  INH203      0.0760
     28  C28       19.6470   28.8010   12.0610 C.ar  203  INH203      0.0460
     29  C27       20.3580   27.6020   11.7760 C.ar  203  INH203      0.0340
     30  C26       21.7250   27.5390   12.0770 C.ar  203  INH203      0.0490
     31  S2        19.7090   26.1770   11.0870 S.3   203  INH203     -0.0830
     32  C25       22.3560   28.6370   12.6390 C.ar  203  INH203      0.0320
     33  N3        22.2300   26.3270   11.7460 N.pl3 203  INH203     -0.3590
     34  C24       21.6590   29.8160   12.9060 C.ar  203  INH203      0.0270
     35  C29       21.3070   25.4980   11.2190 C.3   203  INH203      0.1390
     36  H3        23.2070   26.0670   11.8810 H     203  INH203      0.1660
     37  C18       20.9780   32.8470   14.5630 C.3   203  INH203      0.1120
     38  C19       22.2110   32.3060   15.3080 C.3   203  INH203     -0.0050
     39  C22       23.4790   33.1190   15.0340 C.3   203  INH203      0.0110
     40  C20       21.9230   32.2060   16.8130 C.3   203  INH203      0.0010
     41  C21       22.7720   33.1210   17.6760 C.3   203  INH203      0.0050
     42  O3        17.5740   34.0180   14.2240 O.3   203  INH203     -0.3920
     43  H16       17.4910   34.9610   14.1390 H     203  INH203      0.2100
@<TRIPOS>BOND
     1    31    35    1
     2    31    29    1
     3    35    33    1
     4    33    36    1
     5    33    30    1
     6    29    28   ar
     7    29    30   ar
     8    28    27   ar
     9    30    32   ar
    10    26    24    2
    11    27    34   ar
    12    27    24    1
    13    32    34   ar
    14    25    24    2
    15    24    23    1
    16    43    42    1
    17    42     1    1
    18    23    37    1
    19    23    22    1
    20    37    38    1
    21    39    38    1
    22     1    22    1
    23     1     2    1
    24    38    40    1
    25     2     3    1
    26     2    15    1
    27     8     9   ar
    28     8     7   ar
    29    40    41    1
    30     9    10   ar
    31     6     3    1
    32    21    20   ar
    33    21    16   ar
    34     3     4   am
    35    20    19   ar
    36    15    16    1
    37     4     7    1
    38     4     5    2
    39    16    17   ar
    40     7    12   ar
    41    10    11   ar
    42    19    18   ar
    43    17    18   ar
    44    12    11   ar
    45    11    13    1
    46    13    14    1
