@<TRIPOS>MOLECULE
/tmp/ewbell/vina_2qi4_2qi4_lig/vina/vina2.pdbqt
 43 46 0 0 0
SMALL
GASTEIGER

@<TRIPOS>ATOM
      1  C16       18.4250   35.0590   16.9550 C.3   203  INH203      0.1550
      2  C8        18.3860   35.9020   18.2160 C.3   203  INH203      0.1180
      3  N1        17.0290   36.1320   18.6800 N.am  203  INH203     -0.3490
      4  C1        16.5140   37.3370   18.8810 C.2   203  INH203      0.2520
      5  O1        15.3720   37.5630   19.2580 O.2   203  INH203     -0.2680
      6  H6        16.4500   35.3360   18.8560 H     203  INH203      0.1630
      7  C2        17.4010   38.4870   18.5590 C.ar  203  INH203      0.0340
      8  C7        17.8170   39.2880   19.6330 C.ar  203  INH203      0.0170
      9  C6        18.6640   40.3730   19.4350 C.ar  203  INH203      0.0040
     10  C5        19.1230   40.6370   18.1510 C.ar  203  INH203      0.0360
     11  C4        18.7190   39.8290   17.0900 C.ar  203  INH203      0.0660
     12  C3        17.8580   38.7530   17.2850 C.ar  203  INH203      0.0530
     13  O2        19.1620   40.1000   15.8460 O.3   203  INH203     -0.3610
     14  H2        18.7540   40.8980   15.5320 H     203  INH203      0.2170
     15  C9        19.0450   35.2570   19.4450 C.3   203  INH203      0.0660
     16  C10       20.3930   35.9310   19.7370 C.ar  203  INH203     -0.0560
     17  C15       21.3260   35.3020   20.5570 C.ar  203  INH203      0.0070
     18  C14       22.5450   35.9080   20.8410 C.ar  203  INH203      0.0010
     19  C13       22.8560   37.1440   20.2960 C.ar  203  INH203      0.0000
     20  C12       21.9360   37.7770   19.4680 C.ar  203  INH203      0.0010
     21  C11       20.7110   37.1700   19.1880 C.ar  203  INH203      0.0070
     22  C17       18.3120   33.5590   17.2860 C.3   203  INH203      0.1410
     23  N2        18.9530   32.7880   16.1900 N.3   203  INH203     -0.2040
     24  S1        17.9580   32.4790   14.9250 S.O2  203  INH203      0.2430
     25  O5        16.6280   32.4830   15.4730 O.2   203  INH203     -0.2060
     26  O4        18.1110   33.5280   13.9710 O.2   203  INH203     -0.2060
     27  C23       18.2860   31.0130   14.2560 C.ar  203  INH203      0.0760
     28  C28       17.8210   30.5730   12.9840 C.ar  203  INH203      0.0460
     29  C27       18.1280   29.2750   12.4890 C.ar  203  INH203      0.0340
     30  C26       18.8980   28.4130   13.2800 C.ar  203  INH203      0.0490
     31  S2        17.6400   28.6220   10.9840 S.3   203  INH203     -0.0830
     32  C25       19.3480   28.8380   14.5190 C.ar  203  INH203      0.0320
     33  N3        19.0820   27.2270   12.6530 N.pl3 203  INH203     -0.3590
     34  C24       19.0570   30.1160   14.9970 C.ar  203  INH203      0.0270
     35  C29       18.4870   27.1730   11.4450 C.3   203  INH203      0.1390
     36  H3        19.6160   26.4550   13.0530 H     203  INH203      0.1660
     37  C18       20.2230   33.4050   15.7340 C.3   203  INH203      0.1120
     38  C19       21.4040   32.6430   16.3600 C.3   203  INH203     -0.0050
     39  C22       22.3330   32.0170   15.3160 C.3   203  INH203      0.0110
     40  C20       22.1770   33.5540   17.3240 C.3   203  INH203      0.0010
     41  C21       22.3410   34.9830   16.8420 C.3   203  INH203      0.0050
     42  O3        17.3710   35.4710   16.0720 O.3   203  INH203     -0.3920
     43  H16       16.5590   35.5430   16.5610 H     203  INH203      0.2100
@<TRIPOS>BOND
     1    31    35    1
     2    31    29    1
     3    35    33    1
     4    29    28   ar
     5    29    30   ar
     6    33    36    1
     7    33    30    1
     8    28    27   ar
     9    30    32   ar
    10    26    24    2
    11    27    24    1
    12    27    34   ar
    13    32    34   ar
    14    24    25    2
    15    24    23    1
    16    39    38    1
    17    14    13    1
    18    37    23    1
    19    37    38    1
    20    13    11    1
    21    42    43    1
    22    42     1    1
    23    23    22    1
    24    38    40    1
    25    41    40    1
    26     1    22    1
    27     1     2    1
    28    11    12   ar
    29    11    10   ar
    30    12     7   ar
    31    10     9   ar
    32     2     3    1
    33     2    15    1
    34     7     4    1
    35     7     8   ar
    36     3     6    1
    37     3     4   am
    38     4     5    2
    39    21    20   ar
    40    21    16   ar
    41     9     8   ar
    42    15    16    1
    43    20    19   ar
    44    16    17   ar
    45    19    18   ar
    46    17    18   ar
