@<TRIPOS>MOLECULE
/tmp/ewbell/vina_2qi4_2qi4_lig/vina/vina3.pdbqt
 43 46 0 0 0
SMALL
GASTEIGER

@<TRIPOS>ATOM
      1  C16       17.9280   33.3750   15.7300 C.3   203  INH203      0.1550
      2  C8        18.9260   32.2720   15.4330 C.3   203  INH203      0.1180
      3  N1        20.1600   32.4320   16.1820 N.am  203  INH203     -0.3490
      4  C1        21.3190   31.9030   15.8140 C.2   203  INH203      0.2520
      5  O1        22.3760   32.0310   16.4160 O.2   203  INH203     -0.2680
      6  H6        20.1330   32.9730   17.0220 H     203  INH203      0.1630
      7  C2        21.3130   31.1490   14.5320 C.ar  203  INH203      0.0340
      8  C7        21.1310   31.8960   13.3580 C.ar  203  INH203      0.0170
      9  C6        21.1320   31.2830   12.1090 C.ar  203  INH203      0.0040
     10  C5        21.3470   29.9120   12.0370 C.ar  203  INH203      0.0360
     11  C4        21.5420   29.1780   13.2050 C.ar  203  INH203      0.0660
     12  C3        21.5250   29.7890   14.4560 C.ar  203  INH203      0.0530
     13  O2        21.7400   27.8470   13.1250 O.3   203  INH203     -0.3610
     14  H2        21.4150   27.4310   13.9150 H     203  INH203      0.2170
     15  C9        18.4740   30.8630   15.8450 C.3   203  INH203      0.0660
     16  C10       18.1330   30.0300   14.6020 C.ar  203  INH203     -0.0560
     17  C15       17.7800   30.6620   13.4120 C.ar  203  INH203      0.0070
     18  C14       17.4570   29.9190   12.2830 C.ar  203  INH203      0.0010
     19  C13       17.4960   28.5340   12.3200 C.ar  203  INH203      0.0000
     20  C12       17.8570   27.8920   13.5000 C.ar  203  INH203      0.0010
     21  C11       18.1770   28.6390   14.6340 C.ar  203  INH203      0.0070
     22  C17       17.6950   33.5190   17.2460 C.3   203  INH203      0.1410
     23  N2        17.7450   34.9630   17.5920 N.3   203  INH203     -0.2040
     24  S1        16.2710   35.6500   17.7880 S.O2  203  INH203      0.2430
     25  O5        15.5820   35.4450   16.5410 O.2   203  INH203     -0.2060
     26  O4        15.6000   34.9730   18.8480 O.2   203  INH203     -0.2060
     27  C23       16.4020   37.2590   18.0990 C.ar  203  INH203      0.0760
     28  C28       16.9870   38.2160   17.2210 C.ar  203  INH203      0.0460
     29  C27       17.0870   39.5900   17.5780 C.ar  203  INH203      0.0340
     30  C26       16.6040   40.0010   18.8270 C.ar  203  INH203      0.0490
     31  S2        17.7580   40.8410   16.6220 S.3   203  INH203     -0.0830
     32  C25       16.0380   39.0710   19.6840 C.ar  203  INH203      0.0320
     33  N3        16.7880   41.3320   18.9950 N.pl3 203  INH203     -0.3590
     34  C24       15.9300   37.7270   19.3260 C.ar  203  INH203      0.0270
     35  C29       17.3810   41.9180   17.9360 C.3   203  INH203      0.1390
     36  H3        16.5080   41.8380   19.8350 H     203  INH203      0.1660
     37  C18       18.6210   35.2330   18.7580 C.3   203  INH203      0.1120
     38  C19       19.8350   36.0570   18.2920 C.3   203  INH203     -0.0050
     39  C22       20.0520   37.3240   19.1230 C.3   203  INH203      0.0110
     40  C20       21.0960   35.1810   18.2650 C.3   203  INH203      0.0010
     41  C21       22.0360   35.4690   17.1090 C.3   203  INH203      0.0050
     42  O3        18.3960   34.6080   15.1640 O.3   203  INH203     -0.3920
     43  H16       17.6630   35.0820   14.7880 H     203  INH203      0.2100
@<TRIPOS>BOND
     1    10     9   ar
     2    10    11   ar
     3     9     8   ar
     4    18    19   ar
     5    18    17   ar
     6    19    20   ar
     7    13    11    1
     8    13    14    1
     9    11    12   ar
    10     8     7   ar
    11    17    16   ar
    12    20    21   ar
    13    12     7   ar
    14     7     4    1
    15    16    21   ar
    16    16    15    1
    17    43    42    1
    18    42     1    1
    19     2     1    1
    20     2    15    1
    21     2     3    1
    22     1    22    1
    23     4     3   am
    24     4     5    2
    25     3     6    1
    26    25    24    2
    27    31    29    1
    28    31    35    1
    29    41    40    1
    30    28    29   ar
    31    28    27   ar
    32    22    23    1
    33    29    30   ar
    34    23    24    1
    35    23    37    1
    36    24    27    1
    37    24    26    2
    38    35    33    1
    39    27    34   ar
    40    40    38    1
    41    38    37    1
    42    38    39    1
    43    30    33    1
    44    30    32   ar
    45    33    36    1
    46    34    32   ar
