@<TRIPOS>MOLECULE
/tmp/ewbell/vina_2qi4_2qi4_lig/vina/vina5.pdbqt
 43 46 0 0 0
SMALL
GASTEIGER

@<TRIPOS>ATOM
      1  C16       18.0350   36.6520   17.1840 C.3   203  INH203      0.1550
      2  C8        18.1810   37.8240   18.1370 C.3   203  INH203      0.1180
      3  N1        17.1860   37.7990   19.1940 N.am  203  INH203     -0.3490
      4  C1        16.5190   38.8690   19.6040 C.2   203  INH203      0.2520
      5  O1        15.6670   38.8770   20.4810 O.2   203  INH203     -0.2680
      6  H6        16.9920   36.9230   19.6380 H     203  INH203      0.1630
      7  C2        16.8120   40.1350   18.8800 C.ar  203  INH203      0.0340
      8  C7        16.3310   40.2390   17.5660 C.ar  203  INH203      0.0170
      9  C6        16.5360   41.3910   16.8140 C.ar  203  INH203      0.0040
     10  C5        17.2030   42.4610   17.3990 C.ar  203  INH203      0.0360
     11  C4        17.6650   42.3570   18.7090 C.ar  203  INH203      0.0660
     12  C3        17.4750   41.1980   19.4550 C.ar  203  INH203      0.0530
     13  O2        18.3200   43.3970   19.2630 O.3   203  INH203     -0.3610
     14  H2        19.1670   43.4970   18.8440 H     203  INH203      0.2170
     15  C9        19.4970   37.8510   18.9290 C.3   203  INH203      0.0660
     16  C10       20.5490   38.6810   18.1800 C.ar  203  INH203     -0.0560
     17  C15       21.9020   38.3790   18.3110 C.ar  203  INH203      0.0070
     18  C14       22.8650   39.1300   17.6490 C.ar  203  INH203      0.0010
     19  C13       22.4900   40.1860   16.8320 C.ar  203  INH203      0.0000
     20  C12       21.1410   40.4900   16.6850 C.ar  203  INH203      0.0010
     21  C11       20.1760   39.7370   17.3550 C.ar  203  INH203      0.0070
     22  C17       18.2780   35.3140   17.9070 C.3   203  INH203      0.1410
     23  N2        19.1160   34.4550   17.0310 N.3   203  INH203     -0.2040
     24  S1        18.2540   33.4630   16.0540 S.O2  203  INH203      0.2430
     25  O5        17.0820   33.1050   16.8070 O.2   203  INH203     -0.2060
     26  O4        17.8940   34.1920   14.8820 O.2   203  INH203     -0.2060
     27  C23       19.1110   32.1120   15.6730 C.ar  203  INH203      0.0760
     28  C28       19.6820   31.8380   14.3970 C.ar  203  INH203      0.0460
     29  C27       20.3880   30.6290   14.1420 C.ar  203  INH203      0.0340
     30  C26       20.5130   29.6880   15.1730 C.ar  203  INH203      0.0490
     31  S2        21.1230   30.1760   12.6650 S.3   203  INH203     -0.0830
     32  C25       19.9560   29.9510   16.4140 C.ar  203  INH203      0.0320
     33  N3        21.2060   28.6050   14.7480 N.pl3 203  INH203     -0.3590
     34  C24       19.2750   31.1430   16.6650 C.ar  203  INH203      0.0270
     35  C29       21.5940   28.7010   13.4610 C.3   203  INH203      0.1390
     36  H3        21.4120   27.8000   15.3400 H     203  INH203      0.1660
     37  C18       20.1110   35.2380   16.2570 C.3   203  INH203      0.1120
     38  C19       21.5130   34.9760   16.8320 C.3   203  INH203     -0.0050
     39  C22       21.4870   34.5550   18.3040 C.3   203  INH203      0.0110
     40  C20       22.2620   33.9510   15.9680 C.3   203  INH203      0.0010
     41  C21       22.6760   32.6910   16.7060 C.3   203  INH203      0.0050
     42  O3        16.7290   36.6830   16.5880 O.3   203  INH203     -0.3920
     43  H16       16.7940   37.0170   15.7000 H     203  INH203      0.2100
@<TRIPOS>BOND
     1    31    35    1
     2    31    29    1
     3    35    33    1
     4    29    28   ar
     5    29    30   ar
     6    28    27   ar
     7    33    30    1
     8    33    36    1
     9    26    24    2
    10    30    32   ar
    11    27    24    1
    12    27    34   ar
    13    43    42    1
    14    40    41    1
    15    40    38    1
    16    24    25    2
    17    24    23    1
    18    37    38    1
    19    37    23    1
    20    32    34   ar
    21    42     1    1
    22    20    19   ar
    23    20    21   ar
    24     9    10   ar
    25     9     8   ar
    26    38    39    1
    27    19    18   ar
    28    23    22    1
    29     1    22    1
    30     1     2    1
    31    21    16   ar
    32    10    11   ar
    33     8     7   ar
    34    18    17   ar
    35     2    15    1
    36     2     3    1
    37    16    17   ar
    38    16    15    1
    39    11    13    1
    40    11    12   ar
    41    14    13    1
    42     7    12   ar
    43     7     4    1
    44     3     4   am
    45     3     6    1
    46     4     5    2
