@<TRIPOS>MOLECULE
/tmp/ewbell/vina_2qi4_2qi4_lig/vina/vina4.pdbqt
 43 46 0 0 0
SMALL
GASTEIGER

@<TRIPOS>ATOM
      1  C16       18.4790   25.8410    9.0070 C.3   203  INH203      0.1550
      2  C8        18.4820   25.3830    7.5600 C.3   203  INH203      0.1180
      3  N1        19.8180   25.3690    6.9920 N.am  203  INH203     -0.3490
      4  C1        20.1350   25.9470    5.8420 C.2   203  INH203      0.2520
      5  O1        21.2530   25.9640    5.3450 O.2   203  INH203     -0.2680
      6  H6        20.5390   24.8960    7.4980 H     203  INH203      0.1630
      7  C2        19.0360   26.6760    5.1550 C.ar  203  INH203      0.0340
      8  C7        18.4520   26.0440    4.0460 C.ar  203  INH203      0.0170
      9  C6        17.4040   26.6370    3.3510 C.ar  203  INH203      0.0040
     10  C5        16.9160   27.8610    3.7910 C.ar  203  INH203      0.0360
     11  C4        17.4900   28.4770    4.9020 C.ar  203  INH203      0.0660
     12  C3        18.5500   27.8920    5.5880 C.ar  203  INH203      0.0530
     13  O2        17.0160   29.6690    5.3150 O.3   203  INH203     -0.3610
     14  H2        17.4200   30.3630    4.8060 H     203  INH203      0.2170
     15  C9        18.0180   23.9350    7.3400 C.3   203  INH203      0.0660
     16  C10       16.9430   23.8830    6.2470 C.ar  203  INH203     -0.0560
     17  C15       17.0750   23.0030    5.1760 C.ar  203  INH203      0.0070
     18  C14       16.1160   22.9560    4.1720 C.ar  203  INH203      0.0010
     19  C13       15.0000   23.7760    4.2310 C.ar  203  INH203      0.0000
     20  C12       14.8510   24.6520    5.3010 C.ar  203  INH203      0.0010
     21  C11       15.8180   24.7010    6.3050 C.ar  203  INH203      0.0070
     22  C17       18.7380   27.3560    9.1100 C.3   203  INH203      0.1410
     23  N2        19.3740   27.6340   10.4240 N.3   203  INH203     -0.2040
     24  S1        18.3500   28.2660   11.5360 S.O2  203  INH203      0.2430
     25  O5        17.5360   29.2080   10.8160 O.2   203  INH203     -0.2060
     26  O4        17.5500   27.2090   12.0590 O.2   203  INH203     -0.2060
     27  C23       19.1750   29.0360   12.7320 C.ar  203  INH203      0.0760
     28  C28       19.9180   30.2410   12.5680 C.ar  203  INH203      0.0460
     29  C27       20.6280   30.8290   13.6520 C.ar  203  INH203      0.0340
     30  C26       20.5990   30.1990   14.9020 C.ar  203  INH203      0.0490
     31  S2        21.5510   32.2700   13.5970 S.3   203  INH203     -0.0830
     32  C25       19.8810   29.0250   15.0620 C.ar  203  INH203      0.0320
     33  N3        21.3310   30.8940   15.8040 N.pl3 203  INH203     -0.3590
     34  C24       19.1740   28.4570   14.0010 C.ar  203  INH203      0.0270
     35  C29       21.8970   32.0000   15.2810 C.3   203  INH203      0.1390
     36  H3        21.4440   30.6100   16.7770 H     203  INH203      0.1660
     37  C18       20.0890   26.4520   10.9650 C.3   203  INH203      0.1120
     38  C19       21.6050   26.6870   10.8470 C.3   203  INH203     -0.0050
     39  C22       22.2020   27.3780   12.0750 C.3   203  INH203      0.0110
     40  C20       22.3280   25.3670   10.5400 C.3   203  INH203      0.0010
     41  C21       22.7210   25.1890    9.0850 C.3   203  INH203      0.0050
     42  O3        17.2260   25.4930    9.6160 O.3   203  INH203     -0.3920
     43  H16       16.7490   26.2850    9.8330 H     203  INH203      0.2100
@<TRIPOS>BOND
     1     9    10   ar
     2     9     8   ar
     3    10    11   ar
     4     8     7   ar
     5    18    19   ar
     6    18    17   ar
     7    19    20   ar
     8    14    13    1
     9    11    13    1
    10    11    12   ar
    11     7    12   ar
    12     7     4    1
    13    17    16   ar
    14    20    21   ar
    15     5     4    2
    16     4     3   am
    17    16    21   ar
    18    16    15    1
    19     3     6    1
    20     3     2    1
    21    15     2    1
    22     2     1    1
    23     1    22    1
    24     1    42    1
    25    41    40    1
    26    22    23    1
    27    42    43    1
    28    23    37    1
    29    23    24    1
    30    40    38    1
    31    25    24    2
    32    38    37    1
    33    38    39    1
    34    24    26    2
    35    24    27    1
    36    28    27   ar
    37    28    29   ar
    38    27    34   ar
    39    31    29    1
    40    31    35    1
    41    29    30   ar
    42    34    32   ar
    43    30    32   ar
    44    30    33    1
    45    35    33    1
    46    33    36    1
