@<TRIPOS>MOLECULE
./ligand/2qrl_lig.pdb
 13 12 0 0 0
SMALL
GASTEIGER

@<TRIPOS>ATOM
      1  C1        44.4200   54.5490   16.2100 C.2   374  INH374      0.4402
      2  C2        45.1230   53.8940   17.3170 C.2   374  INH374      0.3260
      3  C3        46.2560   54.3270   19.4840 C.3   374  INH374      0.1137
      4  C4        46.6180   55.5610   20.2870 C.2   374  INH374      0.3728
      5  O1        44.1960   55.7740   16.3160 O.co2 374  INH374     -0.2354
      6  O2        44.0210   53.8850   15.2300 O.co2 374  INH374     -0.2354
      7  O3        45.2590   52.6740   17.3840 O.2   374  INH374     -0.2629
      8  O4        47.0710   55.3280   21.4390 O.co2 374  INH374     -0.2446
      9  N1        45.5520   54.7050   18.2640 N.am  374  INH374     -0.2952
     10  O5        46.4710   56.7320   19.8030 O.co2 374  INH374     -0.2446
     11  H1        45.6080   53.6770   20.0900 H     374  INH374      0.0579
     12  H2        47.1750   53.7840   19.2190 H     374  INH374      0.0579
     13  H3        45.3760   55.6810   18.1320 H     374  INH374      0.1498
@<TRIPOS>BOND
     1     1     2    1
     2     1     6   ar
     3     1     5   ar
     4     2     9   am
     5     2     7    2
     6     3    12    1
     7     3    11    1
     8     3     9    1
     9     3     4    1
    10     4    10   ar
    11     4     8   ar
    12     9    13    1
