@<TRIPOS>MOLECULE
/tmp/ewbell/vina_2qrl_2qrl_lig/vina/vina5.pdbqt
 13 12 0 0 0
SMALL
GASTEIGER

@<TRIPOS>ATOM
      1  C2        33.8940   45.1700   28.5560 C.2   374  INH374      0.3150
      2  O3        33.3090   45.2180   29.6360 O.2   374  INH374     -0.2610
      3  N1        33.4210   45.7530   27.4710 N.am  374  INH374     -0.3420
      4  H3        32.5590   46.2520   27.5690 H     374  INH374      0.1630
      5  C3        34.0240   45.7450   26.1430 C.3   374  INH374      0.2330
      6  C4        34.4140   47.1520   25.7340 C.2   374  INH374      0.1580
      7  O5        34.2880   47.5490   24.5280 O.2   374  INH374     -0.6490
      8  O4        34.8670   47.8670   26.6660 O.3   374  INH374     -0.7750
      9  H         34.8340   47.5610   27.5510 H     374  INH374      0.1670
     10  C1        35.1340   44.4130   28.3630 C.2   374  INH374      0.2360
     11  O2        35.0970   43.1910   28.1070 O.2   374  INH374     -0.6430
     12  O1        36.2090   45.0480   28.4140 O.3   374  INH374     -0.7690
     13  H         36.4090   45.5700   29.1660 H     374  INH374      0.1680
@<TRIPOS>BOND
     1     7     6    2
     2     6     5    1
     3     6     8    1
     4     5     3    1
     5     8     9    1
     6     3     4    1
     7     3     1   am
     8    11    10    2
     9    10    12    1
    10    10     1    1
    11    12    13    1
    12     1     2    2
