@<TRIPOS>MOLECULE
/tmp/ewbell/vina_2qrl_2qrl_lig/vina/vina1.pdbqt
 13 12 0 0 0
SMALL
GASTEIGER

@<TRIPOS>ATOM
      1  C2        52.2070   45.0250   11.3080 C.2   374  INH374      0.3150
      2  O3        51.6770   45.4060   12.3500 O.2   374  INH374     -0.2610
      3  N1        51.8920   43.8810   10.7330 N.am  374  INH374     -0.3420
      4  H3        51.1850   43.3330   11.1810 H     374  INH374      0.1630
      5  C3        52.4680   43.3310    9.5110 C.3   374  INH374      0.2330
      6  C4        52.5640   41.8210    9.6070 C.2   374  INH374      0.1580
      7  O5        52.5730   41.2290   10.7370 O.2   374  INH374     -0.6490
      8  O4        52.6400   41.2250    8.4990 O.3   374  INH374     -0.7750
      9  H         53.4600   40.8750    8.2100 H     374  INH374      0.1670
     10  C1        53.2770   45.7780   10.6470 C.2   374  INH374      0.2360
     11  O2        54.4590   45.3790   10.6990 O.2   374  INH374     -0.6430
     12  O1        52.9480   46.7920    9.9960 O.3   374  INH374     -0.7690
     13  H         53.5860   47.4490    9.7950 H     374  INH374      0.1680
@<TRIPOS>BOND
     1     9     8    1
     2     8     6    1
     3     5     6    1
     4     5     3    1
     5     6     7    2
     6    13    12    1
     7    12    10    1
     8    10    11    2
     9    10     1    1
    10     3     4    1
    11     3     1   am
    12     1     2    2
