@<TRIPOS>MOLECULE
/tmp/ewbell/vina_2qrl_2qrl_lig/vina/vina4.pdbqt
 13 12 0 0 0
SMALL
GASTEIGER

@<TRIPOS>ATOM
      1  C2        53.4410   44.4820   10.2270 C.2   374  INH374      0.3150
      2  O3        54.2050   43.9330    9.4360 O.2   374  INH374     -0.2610
      3  N1        52.3990   43.8650   10.7470 N.am  374  INH374     -0.3420
      4  H3        52.2600   42.9120   10.4740 H     374  INH374      0.1630
      5  C3        51.4270   44.4270   11.6780 C.3   374  INH374      0.2330
      6  C4        50.3170   43.4290   11.9470 C.2   374  INH374      0.1580
      7  O5        49.7310   43.3810   13.0790 O.2   374  INH374     -0.6490
      8  O4        50.0430   42.6710   10.9800 O.3   374  INH374     -0.7750
      9  H         49.9230   41.7520   11.1230 H     374  INH374      0.1670
     10  C1        53.5870   45.8890   10.6150 C.2   374  INH374      0.2360
     11  O2        54.4440   46.2280   11.4580 O.2   374  INH374     -0.6430
     12  O1        52.8620   46.7230   10.0340 O.3   374  INH374     -0.7690
     13  H         52.2260   46.4370    9.4080 H     374  INH374      0.1680
@<TRIPOS>BOND
     1    13    12    1
     2     2     1    2
     3    12    10    1
     4     1    10    1
     5     1     3   am
     6     4     3    1
     7    10    11    2
     8     3     5    1
     9     8     9    1
    10     8     6    1
    11     5     6    1
    12     6     7    2
