@<TRIPOS>MOLECULE
/tmp/ewbell/vina_2qrl_2qrl_lig/vina/vina3.pdbqt
 13 12 0 0 0
SMALL
GASTEIGER

@<TRIPOS>ATOM
      1  C2        47.8850   64.9740   23.0520 C.2   374  INH374      0.3150
      2  O3        48.3620   65.7020   23.9190 O.2   374  INH374     -0.2610
      3  N1        46.6050   64.6580   23.0210 N.am  374  INH374     -0.3420
      4  H3        46.0290   65.0510   23.7390 H     374  INH374      0.1630
      5  C3        45.9420   63.7960   22.0500 C.3   374  INH374      0.2330
      6  C4        45.1850   64.6300   21.0350 C.2   374  INH374      0.1580
      7  O5        43.9210   64.7820   21.1150 O.2   374  INH374     -0.6490
      8  O4        45.8990   65.1360   20.1290 O.3   374  INH374     -0.7750
      9  H         46.4830   64.5950   19.6350 H     374  INH374      0.1670
     10  C1        48.7040   64.3460   22.0110 C.2   374  INH374      0.2360
     11  O2        48.7660   64.8420   20.8670 O.2   374  INH374     -0.6430
     12  O1        49.3680   63.3380   22.3340 O.3   374  INH374     -0.7690
     13  H         49.3440   62.5690   21.7980 H     374  INH374      0.1680
@<TRIPOS>BOND
     1     9     8    1
     2     8     6    1
     3    11    10    2
     4     6     7    2
     5     6     5    1
     6    13    12    1
     7    10    12    1
     8    10     1    1
     9     5     3    1
    10     3     1   am
    11     3     4    1
    12     1     2    2
