@<TRIPOS>MOLECULE
/tmp/ewbell/vina_2qrl_2qrl_lig/vina/vina2.pdbqt
 13 12 0 0 0
SMALL
GASTEIGER

@<TRIPOS>ATOM
      1  C2        51.6460   42.3560   10.5200 C.2   374  INH374      0.3150
      2  O3        50.6060   41.9250   11.0130 O.2   374  INH374     -0.2610
      3  N1        51.9270   43.6440   10.4780 N.am  374  INH374     -0.3420
      4  H3        51.2520   44.2630   10.8800 H     374  INH374      0.1630
      5  C3        53.1190   44.2590    9.9060 C.3   374  INH374      0.2330
      6  C4        53.3540   45.6250   10.5200 C.2   374  INH374      0.1580
      7  O5        52.3850   46.3270   10.9610 O.2   374  INH374     -0.6490
      8  O4        54.5580   45.9930   10.5460 O.3   374  INH374     -0.7750
      9  H         54.9640   46.2130   11.3620 H     374  INH374      0.1670
     10  C1        52.6370   41.4840    9.8830 C.2   374  INH374      0.2360
     11  O2        53.4710   40.8620   10.5730 O.2   374  INH374     -0.6430
     12  O1        52.5740   41.3530    8.6420 O.3   374  INH374     -0.7690
     13  H         53.0190   41.9590    8.0830 H     374  INH374      0.1680
@<TRIPOS>BOND
     1    13    12    1
     2    12    10    1
     3    10     1    1
     4    10    11    2
     5     5     3    1
     6     5     6    1
     7     3     1   am
     8     3     4    1
     9     1     2    2
    10     6     8    1
    11     6     7    2
    12     8     9    1
