@<TRIPOS>MOLECULE
./ligand/3c2r_lig.pdb
 16 16 0 0 0
SMALL
GASTEIGER

@<TRIPOS>ATOM
      1  O1       -21.9230  -14.2250   22.7120 O.co2 1639  INH1639    -0.2406
      2  O2       -23.4620  -14.5330   21.1630 O.co2 1639  INH1639    -0.2406
      3  C1       -21.1670  -16.8040   23.6570 C.2   1639  INH1639     0.3873
      4  O3       -20.4790  -17.0310   24.6760 O.co2 1639  INH1639    -0.2406
      5  O4       -20.6850  -16.5870   22.5250 O.co2 1639  INH1639    -0.2406
      6  C2       -22.9250  -14.8170   22.2550 C.2   1639  INH1639     0.3873
      7  C3       -23.2690  -17.8320   24.5850 C.ar  1639  INH1639    -0.0468
      8  C4       -22.6930  -16.8470   23.7880 C.ar  1639  INH1639     0.0772
      9  C5       -23.5100  -15.9740   23.0700 C.ar  1639  INH1639     0.0772
     10  C6       -24.8940  -16.1000   23.1500 C.ar  1639  INH1639    -0.0468
     11  C7       -25.4690  -17.0880   23.9460 C.ar  1639  INH1639    -0.0609
     12  C8       -24.6540  -17.9550   24.6660 C.ar  1639  INH1639    -0.0609
     13  H1       -22.6350  -18.5080   25.1470 H     1639  INH1639     0.0626
     14  H2       -25.5290  -15.4240   22.5890 H     1639  INH1639     0.0626
     15  H3       -26.5480  -17.1810   24.0040 H     1639  INH1639     0.0618
     16  H4       -25.0960  -18.7250   25.2890 H     1639  INH1639     0.0618
@<TRIPOS>BOND
     1     2     6   ar
     2     6     1   ar
     3     6     9    1
     4     5     3   ar
     5    14    10    1
     6     9    10   ar
     7     9     8   ar
     8    10    11   ar
     9     3     8    1
    10     3     4   ar
    11     8     7   ar
    12    11    15    1
    13    11    12   ar
    14     7    12   ar
    15     7    13    1
    16    12    16    1
