@<TRIPOS>MOLECULE
/tmp/ewbell/vina_3c2r_3c2r_lig/vina/vina5.pdbqt
 14 14 0 0 0
SMALL
GASTEIGER

@<TRIPOS>ATOM
      1  C3       -17.3360  -16.7280   16.7730 C.ar  1639  INH1639     0.0190
      2  C4       -16.3920  -17.6390   17.2380 C.ar  1639  INH1639     0.0540
      3  C5       -16.7230  -18.5040   18.2810 C.ar  1639  INH1639     0.0540
      4  C6       -17.9910  -18.4440   18.8520 C.ar  1639  INH1639     0.0190
      5  C7       -18.9330  -17.5300   18.3870 C.ar  1639  INH1639     0.0010
      6  C8       -18.6050  -16.6710   17.3430 C.ar  1639  INH1639     0.0010
      7  C1       -14.9800  -17.6070   16.6430 C.2   1639  INH1639     0.1770
      8  O4       -14.2080  -16.7010   17.0240 O.2   1639  INH1639    -0.6460
      9  O3       -14.6840  -18.4580   15.7770 O.3   1639  INH1639    -0.7730
     10  H        -15.3100  -18.6970   15.1220 H     1639  INH1639     0.1670
     11  C2       -15.7520  -19.5850   18.7640 C.2   1639  INH1639     0.1770
     12  O2       -14.9570  -19.2960   19.6830 O.2   1639  INH1639    -0.6460
     13  O1       -15.7870  -20.7000   18.1980 O.3   1639  INH1639    -0.7730
     14  H        -15.3980  -21.4460   18.6090 H     1639  INH1639     0.1670
@<TRIPOS>BOND
     1    10     9    1
     2     9     7    1
     3     7     8    2
     4     7     2    1
     5     1     2   ar
     6     1     6   ar
     7     2     3   ar
     8     6     5   ar
     9    13    14    1
    10    13    11    1
    11     3    11    1
    12     3     4   ar
    13     5     4   ar
    14    11    12    2
