@<TRIPOS>MOLECULE
/tmp/ewbell/vina_3c2r_3c2r_lig/vina/vina2.pdbqt
 14 14 0 0 0
SMALL
GASTEIGER

@<TRIPOS>ATOM
      1  C3       -23.9460  -17.6110   24.0020 C.ar  1639  INH1639     0.0190
      2  C4       -23.0390  -16.6170   23.6460 C.ar  1639  INH1639     0.0540
      3  C5       -23.4410  -15.5880   22.7950 C.ar  1639  INH1639     0.0540
      4  C6       -24.7430  -15.5670   22.3020 C.ar  1639  INH1639     0.0190
      5  C7       -25.6490  -16.5650   22.6570 C.ar  1639  INH1639     0.0010
      6  C8       -25.2490  -17.5880   23.5100 C.ar  1639  INH1639     0.0010
      7  C1       -21.5920  -16.7300   24.1370 C.2   1639  INH1639     0.1770
      8  O4       -21.3880  -16.6680   25.3680 O.2   1639  INH1639    -0.6460
      9  O3       -20.6850  -16.8340   23.2840 O.3   1639  INH1639    -0.7730
     10  H        -19.8540  -17.1950   23.5240 H     1639  INH1639     0.1670
     11  C2       -22.5090  -14.4230   22.4510 C.2   1639  INH1639     0.1770
     12  O2       -22.7070  -13.3230   23.0110 O.2   1639  INH1639    -0.6460
     13  O1       -21.6060  -14.6230   21.6100 O.3   1639  INH1639    -0.7730
     14  H        -20.9290  -15.2450   21.7880 H     1639  INH1639     0.1670
@<TRIPOS>BOND
     1    13    14    1
     2    13    11    1
     3     4     5   ar
     4     4     3   ar
     5    11     3    1
     6    11    12    2
     7     5     6   ar
     8     3     2   ar
     9     9    10    1
    10     9     7    1
    11     6     1   ar
    12     2     1   ar
    13     2     7    1
    14     7     8    2
