@<TRIPOS>MOLECULE
/tmp/ewbell/vina_3c2r_3c2r_lig/vina/vina4.pdbqt
 14 14 0 0 0
SMALL
GASTEIGER

@<TRIPOS>ATOM
      1  C3       -18.0200  -18.4670   18.7410 C.ar  1639  INH1639     0.0190
      2  C4       -16.7080  -18.4850   18.2780 C.ar  1639  INH1639     0.0540
      3  C5       -16.2980  -17.5510   17.3270 C.ar  1639  INH1639     0.0540
      4  C6       -17.2060  -16.6140   16.8420 C.ar  1639  INH1639     0.0190
      5  C7       -18.5200  -16.5990   17.3050 C.ar  1639  INH1639     0.0010
      6  C8       -18.9270  -17.5270   18.2570 C.ar  1639  INH1639     0.0010
      7  C1       -15.7680  -19.5910   18.7690 C.2   1639  INH1639     0.1770
      8  O4       -14.9890  -19.3190   19.7080 O.2   1639  INH1639    -0.6460
      9  O3       -15.7940  -20.6930   18.1810 O.3   1639  INH1639    -0.7730
     10  H        -15.5280  -21.4710   18.6310 H     1639  INH1639     0.1670
     11  C2       -14.8420  -17.4710   16.8580 C.2   1639  INH1639     0.1770
     12  O2       -14.4790  -18.2270   15.9310 O.2   1639  INH1639    -0.6460
     13  O1       -14.0820  -16.6680   17.4400 O.3   1639  INH1639    -0.7730
     14  H        -14.0350  -16.6610   18.3750 H     1639  INH1639     0.1670
@<TRIPOS>BOND
     1    12    11    2
     2     4     5   ar
     3     4     3   ar
     4    11     3    1
     5    11    13    1
     6     5     6   ar
     7     3     2   ar
     8    13    14    1
     9     9    10    1
    10     9     7    1
    11     6     1   ar
    12     2     1   ar
    13     2     7    1
    14     7     8    2
