@<TRIPOS>MOLECULE
/tmp/ewbell/vina_3c2r_3c2r_lig/vina/vina3.pdbqt
 14 14 0 0 0
SMALL
GASTEIGER

@<TRIPOS>ATOM
      1  C3       -14.2390  -20.3530   32.2760 C.ar  1639  INH1639     0.0190
      2  C4       -14.9770  -19.3950   32.9660 C.ar  1639  INH1639     0.0540
      3  C5       -16.3700  -19.4590   32.9600 C.ar  1639  INH1639     0.0540
      4  C6       -17.0110  -20.4750   32.2580 C.ar  1639  INH1639     0.0190
      5  C7       -16.2720  -21.4320   31.5660 C.ar  1639  INH1639     0.0010
      6  C8       -14.8830  -21.3710   31.5760 C.ar  1639  INH1639     0.0010
      7  C1       -14.2320  -18.2420   33.6470 C.2   1639  INH1639     0.1770
      8  O4       -14.8370  -17.6000   34.5330 O.2   1639  INH1639    -0.6460
      9  O3       -13.0770  -17.9700   33.2550 O.3   1639  INH1639    -0.7730
     10  H        -12.9070  -17.8520   32.3410 H     1639  INH1639     0.1670
     11  C2       -17.2200  -18.4840   33.7800 C.2   1639  INH1639     0.1770
     12  O2       -17.6140  -18.8490   34.9090 O.2   1639  INH1639    -0.6460
     13  O1       -17.4980  -17.3770   33.2710 O.3   1639  INH1639    -0.7730
     14  H        -16.8750  -16.9440   32.7230 H     1639  INH1639     0.1670
@<TRIPOS>BOND
     1     5     6   ar
     2     5     4   ar
     3     6     1   ar
     4     4     3   ar
     5     1     2   ar
     6    10     9    1
     7    14    13    1
     8     3     2   ar
     9     3    11    1
    10     2     7    1
    11     9     7    1
    12    13    11    1
    13     7     8    2
    14    11    12    2
