@<TRIPOS>MOLECULE
/tmp/ewbell/vina_3c2r_3c2r_lig/vina/vina1.pdbqt
 14 14 0 0 0
SMALL
GASTEIGER

@<TRIPOS>ATOM
      1  C3       -24.7890  -15.6260   22.3420 C.ar  1639  INH1639     0.0190
      2  C4       -23.4760  -15.6210   22.8030 C.ar  1639  INH1639     0.0540
      3  C5       -23.0460  -16.6210   23.6750 C.ar  1639  INH1639     0.0540
      4  C6       -23.9360  -17.6110   24.0830 C.ar  1639  INH1639     0.0190
      5  C7       -25.2510  -17.6130   23.6230 C.ar  1639  INH1639     0.0010
      6  C8       -25.6780  -16.6190   22.7490 C.ar  1639  INH1639     0.0010
      7  C1       -22.5580  -14.4620   22.4010 C.2   1639  INH1639     0.1770
      8  O4       -22.7080  -13.3700   22.9890 O.2   1639  INH1639    -0.6460
      9  O3       -21.7370  -14.6510   21.4780 O.3   1639  INH1639    -0.7730
     10  H        -21.8650  -14.2400   20.6450 H     1639  INH1639     0.1670
     11  C2       -21.5880  -16.7110   24.1340 C.2   1639  INH1639     0.1770
     12  O2       -20.7010  -16.8300   23.2630 O.2   1639  INH1639    -0.6460
     13  O1       -21.3580  -16.6840   25.3630 O.3   1639  INH1639    -0.7730
     14  H        -20.4940  -16.8490   25.6820 H     1639  INH1639     0.1670
@<TRIPOS>BOND
     1    10     9    1
     2     9     7    1
     3     1     6   ar
     4     1     2   ar
     5     7     2    1
     6     7     8    2
     7     6     5   ar
     8     2     3   ar
     9    12    11    2
    10     5     4   ar
    11     3     4   ar
    12     3    11    1
    13    11    13    1
    14    13    14    1
