@<TRIPOS>MOLECULE
./ligand/1fh8_lig.pdb
 37 38 0 0 0
SMALL
GASTEIGER

@<TRIPOS>ATOM
      1  C1       -62.5840   16.9810   57.3620 C.3   315  INH315      0.1879
      2  C2       -61.5230   16.8090   58.4660 C.3   315  INH315      0.1341
      3  C3       -60.9540   15.3920   58.4700 C.3   315  INH315      0.1137
      4  C4       -62.0830   14.3440   58.4220 C.3   315  INH315      0.1069
      5  C5       -63.0670   14.6550   57.2980 C.3   315  INH315      0.0792
      6  O1       -60.4710   17.7510   58.2810 O.3   315  INH315     -0.3841
      7  O2       -60.1920   15.1950   59.6520 O.3   315  INH315     -0.3864
      8  O3       -61.5430   13.0350   58.2460 O.3   315  INH315     -0.3869
      9  O4       -63.6040   15.9790   57.4720 O.3   315  INH315     -0.3461
     10  N1       -65.0070   20.4660   54.4730 N.4   315  INH315      0.2289
     11  C6       -65.9520   19.9430   55.5110 C.3   315  INH315     -0.0046
     12  C7       -65.0790   19.5820   56.7600 C.3   315  INH315      0.1210
     13  O5       -65.8800   19.0610   57.8140 O.3   315  INH315     -0.3839
     14  C8       -63.9760   18.5830   56.3350 C.3   315  INH315      0.0974
     15  O6       -63.2060   18.2750   57.4890 O.3   315  INH315     -0.3425
     16  C9       -63.1180   19.1780   55.2020 C.3   315  INH315      0.0164
     17  C10      -64.0450   19.4720   54.0610 C.3   315  INH315     -0.0311
     18  H1       -62.0970   16.9000   56.3790 H     315  INH315      0.0937
     19  H2       -61.9990   16.9970   59.4400 H     315  INH315      0.0671
     20  H3       -60.3060   15.2630   57.5910 H     315  INH315      0.0647
     21  H4       -62.6250   14.3740   59.3790 H     315  INH315      0.0643
     22  H5       -63.8880   13.9230   57.3180 H     315  INH315      0.0587
     23  H6       -62.5470   14.5960   56.3310 H     315  INH315      0.0587
     24  H7       -59.8210   17.6390   58.9650 H     315  INH315      0.2101
     25  H8       -59.8370   14.3130   59.6570 H     315  INH315      0.2100
     26  H9       -62.2510   12.4020   58.2190 H     315  INH315      0.2100
     27  H10      -65.5380   20.7570   53.6670 H     315  INH315      0.2014
     28  H11      -64.5130   21.2580   54.8540 H     315  INH315      0.2014
     29  H12      -66.4700   19.0480   55.1370 H     315  INH315      0.0840
     30  H13      -66.6930   20.7130   55.7740 H     315  INH315      0.0840
     31  H14      -64.5940   20.5000   57.1240 H     315  INH315      0.0673
     32  H15      -66.3230   18.2750   57.5160 H     315  INH315      0.2101
     33  H16      -64.4460   17.6600   55.9640 H     315  INH315      0.0627
     34  H17      -62.3510   18.4550   54.8890 H     315  INH315      0.0343
     35  H18      -62.6320   20.1040   55.5420 H     315  INH315      0.0343
     36  H19      -63.4670   19.8520   53.2060 H     315  INH315      0.0815
     37  H20      -64.5710   18.5510   53.7680 H     315  INH315      0.0815
@<TRIPOS>BOND
     1     1    15    1
     2     1    18    1
     3     1     9    1
     4     1     2    1
     5     2    19    1
     6     2     6    1
     7     2     3    1
     8     3    20    1
     9     3     7    1
    10     3     4    1
    11     4    21    1
    12     4     8    1
    13     4     5    1
    14     5    23    1
    15     5    22    1
    16     5     9    1
    17     6    24    1
    18     7    25    1
    19     8    26    1
    20    10    28    1
    21    10    27    1
    22    10    17    1
    23    10    11    1
    24    11    30    1
    25    11    29    1
    26    11    12    1
    27    12    31    1
    28    12    14    1
    29    12    13    1
    30    13    32    1
    31    14    33    1
    32    14    16    1
    33    14    15    1
    34    16    35    1
    35    16    34    1
    36    16    17    1
    37    17    37    1
    38    17    36    1
