@<TRIPOS>MOLECULE
/tmp/ewbell/vina_1fh8_1fh8_lig/vina/vina5.pdbqt
 23 24 0 0 0
SMALL
GASTEIGER

@<TRIPOS>ATOM
      1  C1       -64.4470   18.2270   52.0500 C.3   315  INH315      0.2910
      2  C2       -64.7740   17.1030   51.0490 C.3   315  INH315      0.2040
      3  C3       -64.1100   17.3550   49.6970 C.3   315  INH315      0.1820
      4  C4       -64.3550   18.8000   49.2230 C.3   315  INH315      0.1730
      5  C5       -64.0100   19.8000   50.3240 C.3   315  INH315      0.2050
      6  O4       -64.7790   19.5110   51.5040 O.3   315  INH315     -0.3560
      7  O6       -65.2130   18.0360   53.2560 O.3   315  INH315     -0.3510
      8  C8       -64.4310   18.3330   54.4050 C.3   315  INH315      0.1560
      9  C7       -65.2170   19.3600   55.2550 C.3   315  INH315      0.1720
     10  C6       -64.3830   19.7150   56.5310 C.3   315  INH315      0.2660
     11  N1       -64.1050   18.4180   57.2270 N.4   315  INH315     -0.0730
     12  H11      -64.9820   17.9680   57.4390 H     315  INH315      0.2770
     13  H10      -63.6090   18.6070   58.0840 H     315  INH315      0.2770
     14  C10      -63.3090   17.5260   56.4190 C.3   315  INH315      0.2350
     15  C9       -64.1150   17.0760   55.2370 C.3   315  INH315      0.0620
     16  O5       -65.5320   20.5280   54.5050 O.3   315  INH315     -0.3910
     17  H15      -66.4330   20.7790   54.6750 H     315  INH315      0.2100
     18  O1       -64.3480   15.8470   51.5690 O.3   315  INH315     -0.3880
     19  H7       -65.1070   15.3370   51.8270 H     315  INH315      0.2100
     20  O2       -64.6460   16.4570   48.7350 O.3   315  INH315     -0.3900
     21  H8       -65.4670   16.8020   48.4030 H     315  INH315      0.2100
     22  O3       -63.5860   19.0810   48.0540 O.3   315  INH315     -0.3910
     23  H9       -62.9280   18.4060   47.9400 H     315  INH315      0.2100
@<TRIPOS>BOND
     1    23    22    1
     2    22     4    1
     3    21    20    1
     4    20     3    1
     5     4     3    1
     6     4     5    1
     7     3     2    1
     8     5     6    1
     9     2    18    1
    10     2     1    1
    11     6     1    1
    12    18    19    1
    13     1     7    1
    14     7     8    1
    15     8    15    1
    16     8     9    1
    17    16    17    1
    18    16     9    1
    19    15    14    1
    20     9    10    1
    21    14    11    1
    22    10    11    1
    23    11    12    1
    24    11    13    1
