@<TRIPOS>MOLECULE
/tmp/ewbell/vina_1fh8_1fh8_lig/vina/vina2.pdbqt
 23 24 0 0 0
SMALL
GASTEIGER

@<TRIPOS>ATOM
      1  C1       -64.5980   18.1530   53.9750 C.3   315  INH315      0.2910
      2  C2       -65.1840   19.2520   54.8820 C.3   315  INH315      0.2040
      3  C3       -64.3500   19.4280   56.1490 C.3   315  INH315      0.1820
      4  C4       -64.0550   18.0670   56.8090 C.3   315  INH315      0.1730
      5  C5       -63.5030   17.0760   55.7880 C.3   315  INH315      0.2050
      6  O4       -64.4320   16.9270   54.7000 O.3   315  INH315     -0.3560
      7  O6       -65.4930   17.9100   52.8730 O.3   315  INH315     -0.3510
      8  C8       -64.7730   17.7790   51.6540 C.3   315  INH315      0.1560
      9  C7       -65.4640   16.6760   50.8170 C.3   315  INH315      0.1720
     10  C6       -64.6940   16.5020   49.4650 C.3   315  INH315      0.2660
     11  N1       -64.6720   17.8520   48.8150 N.4   315  INH315     -0.0730
     12  H11      -65.6210   18.1690   48.6930 H     315  INH315      0.2770
     13  H10      -64.2260   17.7720   47.9140 H     315  INH315      0.2770
     14  C10      -63.9550   18.8240   49.6040 C.3   315  INH315      0.2350
     15  C9       -64.7190   19.1010   50.8640 C.3   315  INH315      0.0620
     16  O5       -65.5370   15.4460   51.5290 O.3   315  INH315     -0.3910
     17  H15      -64.8540   14.8620   51.2230 H     315  INH315      0.2100
     18  O1       -65.2500   20.4850   54.1720 O.3   315  INH315     -0.3880
     19  H7       -65.1980   20.3160   53.2380 H     315  INH315      0.2100
     20  O2       -65.0610   20.2430   57.0700 O.3   315  INH315     -0.3900
     21  H8       -65.4430   19.6960   57.7470 H     315  INH315      0.2100
     22  O3       -63.1300   18.2220   57.8840 O.3   315  INH315     -0.3910
     23  H9       -63.5490   18.6920   58.5960 H     315  INH315      0.2100
@<TRIPOS>BOND
     1    13    11    1
     2    12    11    1
     3    11    10    1
     4    11    14    1
     5    10     9    1
     6    14    15    1
     7     9    16    1
     8     9     8    1
     9    15     8    1
    10    17    16    1
    11     8     7    1
    12     7     1    1
    13    19    18    1
    14     1     6    1
    15     1     2    1
    16    18     2    1
    17     6     5    1
    18     2     3    1
    19     5     4    1
    20     3     4    1
    21     3    20    1
    22     4    22    1
    23    20    21    1
    24    22    23    1
