@<TRIPOS>MOLECULE
/tmp/ewbell/vina_1fh8_1fh8_lig/vina/vina1.pdbqt
 23 24 0 0 0
SMALL
GASTEIGER

@<TRIPOS>ATOM
      1  C1       -62.4750   17.1050   57.1770 C.3   315  INH315      0.2910
      2  C2       -61.5450   16.8770   58.3840 C.3   315  INH315      0.2040
      3  C3       -61.0660   15.4280   58.4470 C.3   315  INH315      0.1820
      4  C4       -62.2440   14.4490   58.2830 C.3   315  INH315      0.1730
      5  C5       -63.0870   14.8120   57.0630 C.3   315  INH315      0.2050
      6  O4       -63.5590   16.1660   57.1800 O.3   315  INH315     -0.3560
      7  O6       -63.0280   18.4350   57.2390 O.3   315  INH315     -0.3510
      8  C8       -63.9510   18.6500   56.1790 C.3   315  INH315      0.1560
      9  C7       -65.0480   19.6070   56.7010 C.3   315  INH315      0.1720
     10  C6       -66.0880   19.8660   55.5590 C.3   315  INH315      0.2660
     11  N1       -65.3100   20.3910   54.3910 N.4   315  INH315     -0.0730
     12  H11      -64.8190   21.2240   54.6770 H     315  INH315      0.2770
     13  H10      -65.9520   20.6170   53.6480 H     315  INH315      0.2770
     14  C10      -64.3500   19.4320   53.9000 C.3   315  INH315      0.2350
     15  C9       -63.2740   19.2370   54.9260 C.3   315  INH315      0.0620
     16  O5       -65.6820   19.0930   57.8670 O.3   315  INH315     -0.3910
     17  H15      -65.5720   19.7060   58.5840 H     315  INH315      0.2100
     18  O1       -60.4250   17.7540   58.3090 O.3   315  INH315     -0.3880
     19  H7       -59.7840   17.5060   58.9660 H     315  INH315      0.2100
     20  O2       -60.4430   15.1940   59.7020 O.3   315  INH315     -0.3900
     21  H8       -60.9980   15.5290   60.3980 H     315  INH315      0.2100
     22  O3       -61.7680   13.1100   58.1620 O.3   315  INH315     -0.3910
     23  H9       -62.5010   12.5280   58.0010 H     315  INH315      0.2100
@<TRIPOS>BOND
     1    13    11    1
     2    14    11    1
     3    14    15    1
     4    11    12    1
     5    11    10    1
     6    15     8    1
     7    10     9    1
     8     8     9    1
     9     8     7    1
    10     9    16    1
    11     5     6    1
    12     5     4    1
    13     1     6    1
    14     1     7    1
    15     1     2    1
    16    16    17    1
    17    23    22    1
    18    22     4    1
    19     4     3    1
    20    18     2    1
    21    18    19    1
    22     2     3    1
    23     3    20    1
    24    20    21    1
