@<TRIPOS>MOLECULE
/tmp/ewbell/vina_1fh8_1fh8_lig/vina/vina4.pdbqt
 23 24 0 0 0
SMALL
GASTEIGER

@<TRIPOS>ATOM
      1  C1       -64.3840   17.0800   56.2440 C.3   315  INH315      0.2910
      2  C2       -63.4220   18.2400   56.5650 C.3   315  INH315      0.2040
      3  C3       -63.6880   19.4440   55.6640 C.3   315  INH315      0.1820
      4  C4       -63.7930   19.0160   54.1880 C.3   315  INH315      0.1730
      5  C5       -64.7610   17.8470   54.0270 C.3   315  INH315      0.2050
      6  O4       -64.3370   16.7460   54.8500 O.3   315  INH315     -0.3560
      7  O6       -64.0030   15.9140   57.0020 O.3   315  INH315     -0.3510
      8  C8       -62.6040   15.6830   56.9070 C.3   315  INH315      0.1560
      9  C7       -62.0740   15.4270   58.3380 C.3   315  INH315      0.1720
     10  C6       -60.5310   15.1710   58.2740 C.3   315  INH315      0.2660
     11  N1       -60.3310   14.0290   57.3240 N.4   315  INH315     -0.0730
     12  H11      -60.8520   13.2340   57.6600 H     315  INH315      0.2770
     13  H10      -59.3500   13.7990   57.2920 H     315  INH315      0.2770
     14  C10      -60.7780   14.3470   55.9890 C.3   315  INH315      0.2350
     15  C9       -62.2700   14.4930   55.9870 C.3   315  INH315      0.0620
     16  O5       -62.3800   16.5070   59.2120 O.3   315  INH315     -0.3910
     17  H15      -61.5860   16.7980   59.6450 H     315  INH315      0.2100
     18  O1       -63.5560   18.6190   57.9310 O.3   315  INH315     -0.3880
     19  H7       -63.7200   17.8470   58.4600 H     315  INH315      0.2100
     20  O2       -62.6250   20.3760   55.8000 O.3   315  INH315     -0.3900
     21  H8       -62.8480   21.1790   55.3430 H     315  INH315      0.2100
     22  O3       -64.2180   20.1120   53.3790 O.3   315  INH315     -0.3910
     23  H9       -64.4290   19.7980   52.5070 H     315  INH315      0.2100
@<TRIPOS>BOND
     1    23    22    1
     2    22     4    1
     3     5     4    1
     4     5     6    1
     5     4     3    1
     6     6     1    1
     7    21    20    1
     8     3    20    1
     9     3     2    1
    10    15    14    1
    11    15     8    1
    12    14    11    1
    13     1     2    1
    14     1     7    1
    15     2    18    1
    16     8     7    1
    17     8     9    1
    18    13    11    1
    19    11    12    1
    20    11    10    1
    21    18    19    1
    22    10     9    1
    23     9    16    1
    24    16    17    1
