@<TRIPOS>MOLECULE
/tmp/ewbell/vina_1fh8_1fh8_lig/vina/vina3.pdbqt
 23 24 0 0 0
SMALL
GASTEIGER

@<TRIPOS>ATOM
      1  C1       -63.5230   16.9320   55.9130 C.3   315  INH315      0.2910
      2  C2       -64.4780   16.7400   54.7190 C.3   315  INH315      0.2040
      3  C3       -64.7390   18.0630   54.0020 C.3   315  INH315      0.1820
      4  C4       -65.0980   19.1740   55.0080 C.3   315  INH315      0.1730
      5  C5       -64.0790   19.2300   56.1430 C.3   315  INH315      0.2050
      6  O4       -64.0070   17.9510   56.7980 O.3   315  INH315     -0.3560
      7  O6       -63.4240   15.6990   56.6540 O.3   315  INH315     -0.3510
      8  C8       -62.0700   15.4000   56.9620 C.3   315  INH315      0.1560
      9  C7       -61.9470   15.3120   58.5020 C.3   315  INH315      0.1720
     10  C6       -60.4640   14.9860   58.8810 C.3   315  INH315      0.2660
     11  N1       -60.1120   13.7210   58.1570 N.4   315  INH315     -0.0730
     12  H11      -60.7600   13.0000   58.4320 H     315  INH315      0.2770
     13  H10      -59.1760   13.4480   58.4130 H     315  INH315      0.2770
     14  C10      -60.1730   13.8790   56.7240 C.3   315  INH315      0.2350
     15  C9       -61.5990   14.0860   56.3090 C.3   315  INH315      0.0620
     16  O5       -62.3860   16.5100   59.1320 O.3   315  INH315     -0.3910
     17  H15      -61.7470   17.1970   58.9870 H     315  INH315      0.2100
     18  O1       -63.9310   15.7950   53.8050 O.3   315  INH315     -0.3880
     19  H7       -62.9910   15.9220   53.7430 H     315  INH315      0.2100
     20  O2       -65.8170   17.8990   53.0920 O.3   315  INH315     -0.3900
     21  H8       -65.5100   18.0580   52.2060 H     315  INH315      0.2100
     22  O3       -65.1630   20.4400   54.3520 O.3   315  INH315     -0.3910
     23  H9       -64.2840   20.7320   54.1420 H     315  INH315      0.2100
@<TRIPOS>BOND
     1    21    20    1
     2    20     3    1
     3    19    18    1
     4    18     2    1
     5     3     2    1
     6     3     4    1
     7    23    22    1
     8    22     4    1
     9     2     1    1
    10     4     5    1
    11     1     7    1
    12     1     6    1
    13     5     6    1
    14    15    14    1
    15    15     8    1
    16     7     8    1
    17    14    11    1
    18     8     9    1
    19    11    13    1
    20    11    12    1
    21    11    10    1
    22     9    10    1
    23     9    16    1
    24    17    16    1
