@<TRIPOS>MOLECULE
./ligand/3ddg_lig.pdb
 41 42 0 0 0
SMALL
GASTEIGER

@<TRIPOS>ATOM
      1  N1        30.1600   65.4270   11.0820 N.4   1019  INH1019     0.2355
      2  C1        28.9400   65.6190   11.8880 C.3   1019  INH1019     0.0268
      3  C2        29.1110   65.0090   13.2830 C.3   1019  INH1019     0.0911
      4  O1        29.3020   63.6050   13.2270 O.3   1019  INH1019    -0.3891
      5  H1        28.0850   65.1670   11.3650 H     1019  INH1019     0.0926
      6  H2        28.2100   65.2220   13.8770 H     1019  INH1019     0.0617
      7  H3        29.9860   65.4680   13.7670 H     1019  INH1019     0.0617
      8  H4        29.4040   63.2640   14.1080 H     1019  INH1019     0.2097
      9  H5        30.9480   65.7920   11.5940 H     1019  INH1019     0.2021
     10  H6        30.2910   64.4400   10.9220 H     1019  INH1019     0.2021
     11  N2        30.8750   66.3990    7.4810 N.am  1019  INH1019    -0.2916
     12  C3        29.4710   69.1240   13.1240 C.ar  1019  INH1019    -0.0613
     13  C4        27.3650   69.1100   12.1150 C.ar  1019  INH1019    -0.0613
     14  C5        27.5310   67.7610   11.8030 C.ar  1019  INH1019    -0.0532
     15  C6        28.6780   67.0940   12.1730 C.ar  1019  INH1019     0.0023
     16  C7        29.6920   67.7980   12.8080 C.ar  1019  INH1019    -0.0532
     17  C8        28.3520   69.8560   12.7390 C.ar  1019  INH1019    -0.0617
     18  C9        30.0820   66.1180    9.7690 C.3   1019  INH1019    -0.0114
     19  C10       31.1780   65.7230    8.7590 C.3   1019  INH1019     0.0942
     20  C11       29.5470   66.2590    6.8520 C.3   1019  INH1019     0.0038
     21  C12       31.9150   66.9950    6.9030 C.2   1019  INH1019     0.2471
     22  O2        31.9090   67.5850    5.8290 O.2   1019  INH1019    -0.2727
     23  C13       33.1550   66.7440    7.7530 C.3   1019  INH1019     0.1586
     24  O3        34.1150   66.0080    7.0120 O.3   1019  INH1019    -0.3799
     25  C14       32.6050   66.1790    9.0620 C.3   1019  INH1019     0.1129
     26  O4        33.4320   65.2170    9.6690 O.3   1019  INH1019    -0.3867
     27  H7        30.6340   67.3190   13.0500 H     1019  INH1019     0.0622
     28  H8        30.2240   69.6320   13.7150 H     1019  INH1019     0.0618
     29  H9        28.2600   70.9220   12.9130 H     1019  INH1019     0.0618
     30  H10       26.4290   69.5930   11.8600 H     1019  INH1019     0.0618
     31  H11       26.7520   67.2330   11.2650 H     1019  INH1019     0.0622
     32  H12       29.1050   65.8880    9.3200 H     1019  INH1019     0.0833
     33  H13       30.1570   67.2010    9.9480 H     1019  INH1019     0.0833
     34  H14       31.1640   64.6290    8.6440 H     1019  INH1019     0.0580
     35  H15       29.5230   66.8340    5.9150 H     1019  INH1019     0.0429
     36  H16       28.7750   66.6410    7.5360 H     1019  INH1019     0.0429
     37  H17       29.3540   65.1980    6.6360 H     1019  INH1019     0.0429
     38  H18       33.6300   67.7070    7.9910 H     1019  INH1019     0.0717
     39  H19       34.8830   65.8570    7.5500 H     1019  INH1019     0.2105
     40  H20       32.5370   67.0100    9.7800 H     1019  INH1019     0.0645
     41  H21       34.2930   65.5890    9.8180 H     1019  INH1019     0.2100
@<TRIPOS>BOND
     1    22    21    2
     2    35    20    1
     3    37    20    1
     4    20    11    1
     5    20    36    1
     6    21    11   am
     7    21    23    1
     8    24    39    1
     9    24    23    1
    10    11    19    1
    11    23    38    1
    12    23    25    1
    13    34    19    1
    14    19    25    1
    15    19    18    1
    16    25    26    1
    17    25    40    1
    18    32    18    1
    19    26    41    1
    20    18    33    1
    21    18     1    1
    22    10     1    1
    23     1     9    1
    24     1     2    1
    25    31    14    1
    26     5     2    1
    27    14    13   ar
    28    14    15   ar
    29    30    13    1
    30     2    15    1
    31     2     3    1
    32    13    17   ar
    33    15    16   ar
    34    17    29    1
    35    17    12   ar
    36    16    27    1
    37    16    12   ar
    38    12    28    1
    39     4     3    1
    40     4     8    1
    41     3     7    1
    42     3     6    1
