@<TRIPOS>MOLECULE
/tmp/ewbell/vina_3ddg_3ddg_lig/vina/vina1.pdbqt
 25 26 0 0 0
SMALL
GASTEIGER

@<TRIPOS>ATOM
      1  N1        28.8690   64.8030   10.4240 N.4   1019  INH1019    -0.0630
      2  H5        29.4520   64.4880   11.1830 H     1019  INH1019     0.2780
      3  H6        28.7790   64.0670    9.7400 H     1019  INH1019     0.2780
      4  C9        29.5150   65.9760    9.7800 C.3   1019  INH1019     0.2610
      5  C10       30.6900   65.6390    8.8410 C.3   1019  INH1019     0.1440
      6  N2        30.4440   66.3190    7.5520 N.am  1019  INH1019    -0.3450
      7  C11       29.1670   66.1330    6.8360 C.3   1019  INH1019     0.1530
      8  C12       31.4950   66.9640    7.0500 C.2   1019  INH1019     0.2510
      9  O2        31.5350   67.5670    5.9840 O.2   1019  INH1019    -0.2700
     10  C13       32.6850   66.7520    7.9780 C.3   1019  INH1019     0.2400
     11  C14       32.0740   66.1490    9.2420 C.3   1019  INH1019     0.1800
     12  O3        33.7220   66.0660    7.2940 O.3   1019  INH1019    -0.3830
     13  H19       33.7080   65.1480    7.5390 H     1019  INH1019     0.2100
     14  O4        32.8990   65.2140    9.8930 O.3   1019  INH1019    -0.3900
     15  H21       32.6070   65.1030   10.7890 H     1019  INH1019     0.2100
     16  C1        27.5310   65.1230   10.9550 C.3   1019  INH1019     0.2420
     17  C6        26.4230   64.5430   10.0820 C.ar  1019  INH1019    -0.0260
     18  C5        25.8570   65.2010    9.0130 C.ar  1019  INH1019     0.0090
     19  C4        24.8560   64.5920    8.2570 C.ar  1019  INH1019     0.0010
     20  C8        24.3380   63.3460    8.5740 C.ar  1019  INH1019     0.0000
     21  C3        24.9730   62.7120    9.6370 C.ar  1019  INH1019     0.0010
     22  C7        25.9430   63.2890   10.4330 C.ar  1019  INH1019     0.0090
     23  C2        27.2750   66.6330   10.9030 C.3   1019  INH1019     0.2020
     24  O1        26.6340   67.1020   12.0780 O.3   1019  INH1019    -0.3980
     25  H4        26.7870   68.0350   12.1710 H     1019  INH1019     0.2090
@<TRIPOS>BOND
     1     9     8    2
     2     7     6    1
     3     8     6   am
     4     8    10    1
     5    12    13    1
     6    12    10    1
     7     6     5    1
     8    10    11    1
     9    19    20   ar
    10    19    18   ar
    11    20    21   ar
    12     5    11    1
    13     5     4    1
    14    18    17   ar
    15    11    14    1
    16    21    22   ar
    17     3     1    1
    18     4     1    1
    19    14    15    1
    20    17    22   ar
    21    17    16    1
    22     1    16    1
    23     1     2    1
    24    23    16    1
    25    23    24    1
    26    24    25    1
