@<TRIPOS>MOLECULE
/tmp/ewbell/vina_3ddg_3ddg_lig/vina/vina3.pdbqt
 25 26 0 0 0
SMALL
GASTEIGER

@<TRIPOS>ATOM
      1  N1        28.1910   65.4000    9.5800 N.4   1019  INH1019    -0.0630
      2  H5        28.3590   64.7390   10.3230 H     1019  INH1019     0.2780
      3  H6        28.1480   64.9100    8.6990 H     1019  INH1019     0.2780
      4  C9        29.3190   66.3650    9.5360 C.3   1019  INH1019     0.2610
      5  C10       30.5360   65.9080    8.7070 C.3   1019  INH1019     0.1440
      6  N2        30.4620   66.5780    7.3930 N.am  1019  INH1019    -0.3450
      7  C11       29.2390   66.4870    6.5700 C.3   1019  INH1019     0.1530
      8  C12       31.6040   67.1190    6.9750 C.2   1019  INH1019     0.2510
      9  O2        31.7880   67.6930    5.9080 O.2   1019  INH1019    -0.2700
     10  C13       32.6880   66.8260    8.0060 C.3   1019  INH1019     0.2400
     11  C14       31.9200   66.3050    9.2200 C.3   1019  INH1019     0.1800
     12  O3        33.7150   66.0380    7.4250 O.3   1019  INH1019    -0.3830
     13  H19       34.3830   66.6070    7.0620 H     1019  INH1019     0.2100
     14  O4        32.6010   65.3170    9.9530 O.3   1019  INH1019    -0.3900
     15  H21       32.8030   65.6480   10.8200 H     1019  INH1019     0.2100
     16  C1        26.8960   66.0640    9.8180 C.3   1019  INH1019     0.2420
     17  C6        26.0370   65.2860   10.8100 C.ar  1019  INH1019    -0.0260
     18  C5        24.6690   65.4070   10.9080 C.ar  1019  INH1019     0.0090
     19  C4        23.9560   64.6480   11.8350 C.ar  1019  INH1019     0.0010
     20  C8        24.5780   63.7990   12.7370 C.ar  1019  INH1019     0.0000
     21  C3        25.9530   63.6870   12.5670 C.ar  1019  INH1019     0.0010
     22  C7        26.7030   64.4420   11.6860 C.ar  1019  INH1019     0.0090
     23  C2        26.0500   66.0740    8.5410 C.3   1019  INH1019     0.2020
     24  O1        26.1950   64.8740    7.7990 O.3   1019  INH1019    -0.3980
     25  H4        26.3580   65.0830    6.8880 H     1019  INH1019     0.2090
@<TRIPOS>BOND
     1     9     8    2
     2     7     6    1
     3    25    24    1
     4     8     6   am
     5     8    10    1
     6    13    12    1
     7     6     5    1
     8    12    10    1
     9    24    23    1
    10    10    11    1
    11    23    16    1
    12     3     1    1
    13     5    11    1
    14     5     4    1
    15    11    14    1
    16     4     1    1
    17     1    16    1
    18     1     2    1
    19    16    17    1
    20    14    15    1
    21    17    18   ar
    22    17    22   ar
    23    18    19   ar
    24    22    21   ar
    25    19    20   ar
    26    21    20   ar
