@<TRIPOS>MOLECULE
/tmp/ewbell/vina_3ddg_3ddg_lig/vina/vina2.pdbqt
 25 26 0 0 0
SMALL
GASTEIGER

@<TRIPOS>ATOM
      1  N1        28.2930   65.2500    9.6730 N.4   1019  INH1019    -0.0630
      2  H5        28.3770   64.6340    8.8790 H     1019  INH1019     0.2780
      3  H6        27.4170   65.7470    9.6210 H     1019  INH1019     0.2780
      4  C9        29.4040   66.2350    9.6330 C.3   1019  INH1019     0.2610
      5  C10       30.6100   65.8220    8.7670 C.3   1019  INH1019     0.1440
      6  N2        30.4830   66.5070    7.4640 N.am  1019  INH1019    -0.3450
      7  C11       29.2420   66.3940    6.6730 C.3   1019  INH1019     0.1530
      8  C12       31.6000   67.0840    7.0240 C.2   1019  INH1019     0.2510
      9  O2        31.7400   67.6770    5.9610 O.2   1019  INH1019    -0.2700
     10  C13       32.7170   66.8060    8.0220 C.3   1019  INH1019     0.2400
     11  C14       31.9960   66.2490    9.2490 C.3   1019  INH1019     0.1800
     12  O3        33.7490   66.0540    7.4040 O.3   1019  INH1019    -0.3830
     13  H19       33.5830   65.1280    7.5280 H     1019  INH1019     0.2100
     14  O4        32.7230   65.2700    9.9500 O.3   1019  INH1019    -0.3900
     15  H21       33.6080   65.5790   10.1000 H     1019  INH1019     0.2100
     16  C1        28.3070   64.4410   10.9060 C.3   1019  INH1019     0.2420
     17  C6        26.8960   64.1480   11.4050 C.ar  1019  INH1019    -0.0260
     18  C5        26.5000   64.2720   12.7190 C.ar  1019  INH1019     0.0090
     19  C4        25.1850   63.9970   13.0900 C.ar  1019  INH1019     0.0010
     20  C8        24.2400   63.5270   12.1900 C.ar  1019  INH1019     0.0000
     21  C3        24.6830   63.4590   10.8740 C.ar  1019  INH1019     0.0010
     22  C7        25.9830   63.6890   10.4660 C.ar  1019  INH1019     0.0090
     23  C2        28.9410   65.2240   12.0600 C.3   1019  INH1019     0.2020
     24  O1        29.7680   64.4020   12.8670 O.3   1019  INH1019    -0.3980
     25  H4        29.8120   63.5310   12.4920 H     1019  INH1019     0.2090
@<TRIPOS>BOND
     1     9     8    2
     2     7     6    1
     3     8     6   am
     4     8    10    1
     5    12    13    1
     6    12    10    1
     7     6     5    1
     8    10    11    1
     9     5    11    1
    10     5     4    1
    11     2     1    1
    12    11    14    1
    13     3     1    1
    14     4     1    1
    15     1    16    1
    16    14    15    1
    17    22    21   ar
    18    22    17   ar
    19    21    20   ar
    20    16    17    1
    21    16    23    1
    22    17    18   ar
    23    23    24    1
    24    20    19   ar
    25    25    24    1
    26    18    19   ar
