@<TRIPOS>MOLECULE
/tmp/ewbell/vina_3ddg_3ddg_lig/vina/vina4.pdbqt
 25 26 0 0 0
SMALL
GASTEIGER

@<TRIPOS>ATOM
      1  N1        28.9950   64.5670   10.5620 N.4   1019  INH1019    -0.0630
      2  H5        28.8980   63.7630    9.9620 H     1019  INH1019     0.2780
      3  H6        29.9370   64.6110   10.9170 H     1019  INH1019     0.2780
      4  C9        28.0590   64.4250   11.7070 C.3   1019  INH1019     0.2610
      5  C10       26.8410   63.5160   11.4440 C.3   1019  INH1019     0.1440
      6  N2        25.6410   64.3770   11.3970 N.am  1019  INH1019    -0.3450
      7  C11       25.3380   65.3040   12.5040 C.3   1019  INH1019     0.1530
      8  C12       24.8190   64.1350   10.3790 C.2   1019  INH1019     0.2510
      9  O2        23.7530   64.6980   10.1570 O.2   1019  INH1019    -0.2700
     10  C13       25.3730   62.9670    9.5720 C.3   1019  INH1019     0.2400
     11  C14       26.7940   62.7820   10.1040 C.3   1019  INH1019     0.1800
     12  O3        24.4610   61.8810    9.5940 O.3   1019  INH1019    -0.3830
     13  H19       23.8560   61.9600    8.8670 H     1019  INH1019     0.2100
     14  O4        27.2320   61.4460   10.1290 O.3   1019  INH1019    -0.3900
     15  H21       27.9620   61.3410    9.5310 H     1019  INH1019     0.2100
     16  C1        28.7280   65.7830    9.7710 C.3   1019  INH1019     0.2420
     17  C6        29.9130   66.1490    8.8820 C.ar  1019  INH1019    -0.0260
     18  C5        31.2200   66.1840    9.3120 C.ar  1019  INH1019     0.0090
     19  C4        32.2470   66.5150    8.4300 C.ar  1019  INH1019     0.0010
     20  C8        32.0080   66.8890    7.1160 C.ar  1019  INH1019     0.0000
     21  C3        30.6760   66.7980    6.7260 C.ar  1019  INH1019     0.0010
     22  C7        29.6240   66.5060    7.5730 C.ar  1019  INH1019     0.0090
     23  C2        28.5770   67.0030   10.6860 C.3   1019  INH1019     0.2020
     24  O1        27.3150   67.6290   10.5300 O.3   1019  INH1019    -0.3980
     25  H4        26.6250   67.0060   10.7220 H     1019  INH1019     0.2090
@<TRIPOS>BOND
     1    21    20   ar
     2    21    22   ar
     3    20    19   ar
     4    22    17   ar
     5    19    18   ar
     6    13    12    1
     7    17    18   ar
     8    17    16    1
     9    15    14    1
    10    10    12    1
    11    10    11    1
    12    10     8    1
    13    16     1    1
    14    16    23    1
    15     2     1    1
    16    11    14    1
    17    11     5    1
    18     9     8    2
    19     8     6   am
    20    24    23    1
    21    24    25    1
    22     1     3    1
    23     1     4    1
    24     6     5    1
    25     6     7    1
    26     5     4    1
