@<TRIPOS>MOLECULE
/tmp/ewbell/vina_3ddg_3ddg_lig/vina/vina5.pdbqt
 25 26 0 0 0
SMALL
GASTEIGER

@<TRIPOS>ATOM
      1  N1        29.6330   66.3490   11.2510 N.4   1019  INH1019    -0.0630
      2  H5        29.9820   65.6940   11.9330 H     1019  INH1019     0.2780
      3  H6        30.3250   67.0640   11.0870 H     1019  INH1019     0.2780
      4  C9        28.4040   66.9880   11.7890 C.3   1019  INH1019     0.2610
      5  C10       27.8700   66.3740   13.0980 C.3   1019  INH1019     0.1440
      6  N2        26.5640   65.7490   12.8010 N.am  1019  INH1019    -0.3450
      7  C11       25.4930   66.5220   12.1420 C.3   1019  INH1019     0.1530
      8  C12       26.4040   64.5240   13.2980 C.2   1019  INH1019     0.2510
      9  O2        25.3990   63.8300   13.2080 O.2   1019  INH1019    -0.2700
     10  C13       27.6520   64.1530   14.0900 C.3   1019  INH1019     0.2400
     11  C14       28.6720   65.2250   13.7090 C.3   1019  INH1019     0.1800
     12  O3        27.3210   63.9420   15.4540 O.3   1019  INH1019    -0.3830
     13  H19       27.6160   63.0800   15.7210 H     1019  INH1019     0.2100
     14  O4        29.5480   65.5850   14.7500 O.3   1019  INH1019    -0.3900
     15  H21       30.3100   65.0180   14.7320 H     1019  INH1019     0.2100
     16  C1        29.3830   65.6310    9.9870 C.3   1019  INH1019     0.2420
     17  C6        30.3190   66.0990    8.8780 C.ar  1019  INH1019    -0.0260
     18  C5        29.9150   66.3710    7.5890 C.ar  1019  INH1019     0.0090
     19  C4        30.8350   66.8080    6.6370 C.ar  1019  INH1019     0.0010
     20  C8        32.1890   66.9230    6.9090 C.ar  1019  INH1019     0.0000
     21  C3        32.5340   66.6740    8.2330 C.ar  1019  INH1019     0.0010
     22  C7        31.6640   66.2080    9.2000 C.ar  1019  INH1019     0.0090
     23  C2        27.9890   65.9610    9.4440 C.3   1019  INH1019     0.2020
     24  O1        27.1430   64.8230    9.4260 O.3   1019  INH1019    -0.3980
     25  H4        27.2900   64.3320    8.6270 H     1019  INH1019     0.2090
@<TRIPOS>BOND
     1    19    20   ar
     2    19    18   ar
     3    20    21   ar
     4    18    17   ar
     5    21    22   ar
     6    25    24    1
     7    17    22   ar
     8    17    16    1
     9    24    23    1
    10    23    16    1
    11    16     1    1
    12     3     1    1
    13     1     4    1
    14     1     2    1
    15     4     5    1
    16     7     6    1
    17     6     5    1
    18     6     8   am
    19     5    11    1
    20     9     8    2
    21     8    10    1
    22    11    10    1
    23    11    14    1
    24    10    12    1
    25    15    14    1
    26    12    13    1
