@<TRIPOS>MOLECULE
./ligand/1lhw_lig.pdb
 48 51 0 0 0
SMALL
GASTEIGER

@<TRIPOS>ATOM
      1  C1        20.5540    9.0130   33.4050 C.ar  359  INH359     -0.0126
      2  C2        20.9210   10.3670   33.4410 C.ar  359  INH359     -0.0371
      3  C3        23.1460    9.8710   32.3250 C.3   359  INH359     -0.0454
      4  C4        24.5870   10.3250   32.1460 C.3   359  INH359     -0.0445
      5  C5        24.7000   11.7870   31.6690 C.3   359  INH359     -0.0030
      6  C6        23.9390   12.6610   32.6610 C.3   359  INH359     -0.0298
      7  C7        24.3180   14.0970   32.2300 C.3   359  INH359     -0.0470
      8  C8        25.7490   13.9280   31.6970 C.3   359  INH359     -0.0261
      9  C9        26.0630   12.4400   31.7880 C.3   359  INH359      0.0609
     10  C10       24.1420   11.8940   30.2190 C.3   359  INH359     -0.0569
     11  C11       19.2630    8.5960   33.5510 C.ar  359  INH359      0.1615
     12  C12       18.2560    9.5210   33.7390 C.ar  359  INH359      0.1587
     13  C13       18.5920   10.8680   33.7950 C.ar  359  INH359     -0.0131
     14  C14       19.8940   11.3040   33.6540 C.ar  359  INH359     -0.0402
     15  C15       20.1630   12.8100   33.7270 C.3   359  INH359     -0.0270
     16  C16       21.6490   13.1860   33.7010 C.3   359  INH359     -0.0454
     17  C17       22.4460   12.2860   32.7540 C.3   359  INH359     -0.0305
     18  C18       22.3650   10.7990   33.2610 C.3   359  INH359     -0.0124
     19  O1        26.9810   12.0830   30.7200 O.3   359  INH359     -0.3912
     20  O2        16.9710    9.0850   33.8630 O.3   359  INH359     -0.5033
     21  O3        18.8040    7.2760   33.5290 O.3   359  INH359     -0.4914
     22  C19       19.7890    6.2700   33.3550 C.3   359  INH359      0.0790
     23  H1        21.3270    8.2680   33.2550 H     359  INH359      0.0658
     24  H2        23.1430    8.8560   32.7480 H     359  INH359      0.0271
     25  H3        22.6520    9.8600   31.3420 H     359  INH359      0.0271
     26  H4        25.0700    9.6750   31.4020 H     359  INH359      0.0272
     27  H5        25.1080   10.2290   33.1100 H     359  INH359      0.0272
     28  H6        24.3520   12.4970   33.6670 H     359  INH359      0.0310
     29  H7        24.2940   14.7870   33.0860 H     359  INH359      0.0269
     30  H8        23.6430   14.4650   31.4430 H     359  INH359      0.0269
     31  H9        26.4560   14.5050   32.3120 H     359  INH359      0.0290
     32  H10       25.8090   14.2670   30.6520 H     359  INH359      0.0290
     33  H11       26.5210   12.1890   32.7560 H     359  INH359      0.0599
     34  H12       23.1550   11.4110   30.1700 H     359  INH359      0.0236
     35  H13       24.8310   11.3920   29.5230 H     359  INH359      0.0236
     36  H14       24.0460   12.9540   29.9400 H     359  INH359      0.0236
     37  H15       17.8080   11.5990   33.9540 H     359  INH359      0.0658
     38  H16       19.7270   13.1930   34.6610 H     359  INH359      0.0313
     39  H17       19.6710   13.2900   32.8680 H     359  INH359      0.0313
     40  H18       22.0590   13.0860   34.7170 H     359  INH359      0.0271
     41  H19       21.7470   14.2290   33.3670 H     359  INH359      0.0271
     42  H20       22.0010   12.3580   31.7510 H     359  INH359      0.0310
     43  H21       22.8470   10.7530   34.2490 H     359  INH359      0.0352
     44  H22       27.1810   11.1560   30.7710 H     359  INH359      0.2098
     45  H23       16.3940    9.8300   33.9860 H     359  INH359      0.2923
     46  H24       19.3070    5.2810   33.3550 H     359  INH359      0.0660
     47  H25       20.5170    6.3230   34.1780 H     359  INH359      0.0660
     48  H26       20.3070    6.4260   32.3970 H     359  INH359      0.0660
@<TRIPOS>BOND
     1     1     2   ar
     2     1    23    1
     3     1    11   ar
     4     2    14   ar
     5     2    18    1
     6     3    25    1
     7     3    24    1
     8     3    18    1
     9     3     4    1
    10     4    27    1
    11     4    26    1
    12     4     5    1
    13     5    10    1
    14     5     9    1
    15     5     6    1
    16     6    28    1
    17     6    17    1
    18     6     7    1
    19     7    30    1
    20     7    29    1
    21     7     8    1
    22     8    32    1
    23     8    31    1
    24     8     9    1
    25     9    33    1
    26     9    19    1
    27    10    36    1
    28    10    35    1
    29    10    34    1
    30    11    21    1
    31    11    12   ar
    32    12    20    1
    33    12    13   ar
    34    13    14   ar
    35    13    37    1
    36    14    15    1
    37    15    16    1
    38    15    39    1
    39    15    38    1
    40    16    17    1
    41    16    41    1
    42    16    40    1
    43    17    42    1
    44    17    18    1
    45    18    43    1
    46    19    44    1
    47    20    45    1
    48    21    22    1
    49    22    48    1
    50    22    47    1
    51    22    46    1
