@<TRIPOS>MOLECULE
/tmp/ewbell/vina_1lhw_1lhw_lig/vina/vina3.pdbqt
 24 27 0 0 0
SMALL
GASTEIGER

@<TRIPOS>ATOM
      1  C1        21.0770   10.8590   27.2670 C.ar  359  INH359      0.0470
      2  C2        21.1630   10.5210   28.6270 C.ar  359  INH359     -0.0440
      3  C3        23.4350   11.6320   28.8380 C.3   359  INH359      0.0100
      4  C4        24.7530   11.6560   29.5970 C.3   359  INH359      0.0130
      5  C5        24.5640   11.8050   31.1200 C.3   359  INH359     -0.0140
      6  C6        23.6480   10.6790   31.5890 C.3   359  INH359      0.0010
      7  C7        23.7260   10.7790   33.1300 C.3   359  INH359      0.0080
      8  C8        25.1580   11.2810   33.3690 C.3   359  INH359      0.0330
      9  C9        25.7670   11.4980   31.9900 C.3   359  INH359      0.1260
     10  C10       23.9870   13.2190   31.4260 C.3   359  INH359      0.0180
     11  C11       19.8990   10.8540   26.5800 C.ar  359  INH359      0.1010
     12  C12       18.7260   10.5110   27.2230 C.ar  359  INH359      0.0990
     13  C13       18.7830   10.1560   28.5650 C.ar  359  INH359      0.0470
     14  C14       19.9690   10.1510   29.2720 C.ar  359  INH359     -0.0490
     15  C15       19.9280    9.7490   30.7490 C.3   359  INH359      0.0390
     16  C16       21.3060    9.6380   31.4100 C.3   359  INH359      0.0100
     17  C17       22.2630   10.7240   30.9130 C.3   359  INH359     -0.0010
     18  C18       22.4880   10.5500   29.3660 C.3   359  INH359      0.0240
     19  O1        26.7320   12.5820   32.0630 O.3   359  INH359     -0.3950
     20  H22       26.3690   13.3570   31.6500 H     359  INH359      0.2100
     21  O3        19.7160   11.1740   25.2320 O.3   359  INH359     -0.3530
     22  C19       19.9080   10.1190   24.3030 C.3   359  INH359      0.2100
     23  O2        17.5570   10.5310   26.5230 O.3   359  INH359     -0.3580
     24  H23       17.0860   11.3330   26.7180 H     359  INH359      0.2170
@<TRIPOS>BOND
     1    22    21    1
     2    21    11    1
     3    23    24    1
     4    23    12    1
     5    11    12   ar
     6    11     1   ar
     7    12    13   ar
     8     1     2   ar
     9    13    14   ar
    10     2    14   ar
    11     2    18    1
    12     3    18    1
    13     3     4    1
    14    14    15    1
    15    18    17    1
    16     4     5    1
    17    15    16    1
    18    17    16    1
    19    17     6    1
    20     5    10    1
    21     5     6    1
    22     5     9    1
    23     6     7    1
    24    20    19    1
    25     9    19    1
    26     9     8    1
    27     7     8    1
