@<TRIPOS>MOLECULE
/tmp/ewbell/vina_1lhw_1lhw_lig/vina/vina2.pdbqt
 24 27 0 0 0
SMALL
GASTEIGER

@<TRIPOS>ATOM
      1  C1        24.5340   12.8230   32.6600 C.ar  359  INH359      0.0470
      2  C2        23.8220   11.6270   32.8370 C.ar  359  INH359     -0.0440
      3  C3        21.6830   12.8890   33.3590 C.3   359  INH359      0.0100
      4  C4        20.3440   12.8420   34.0790 C.3   359  INH359      0.0130
      5  C5        19.4970   11.6140   33.6900 C.3   359  INH359     -0.0140
      6  C6        20.3370   10.3670   33.9510 C.3   359  INH359      0.0010
      7  C7        19.3240    9.2130   33.7640 C.3   359  INH359      0.0080
      8  C8        18.0020    9.8380   34.2360 C.3   359  INH359      0.0330
      9  C9        18.3180   11.2870   34.5860 C.3   359  INH359      0.1260
     10  C10       19.0610   11.7470   32.2010 C.3   359  INH359      0.0180
     11  C11       25.7290   12.8790   32.0040 C.ar  359  INH359      0.1010
     12  C12       26.2820   11.7290   31.4790 C.ar  359  INH359      0.0990
     13  C13       25.6070   10.5270   31.6520 C.ar  359  INH359      0.0470
     14  C14       24.4000   10.4550   32.3180 C.ar  359  INH359     -0.0490
     15  C15       23.7320    9.0830   32.4550 C.3   359  INH359      0.0390
     16  C16       22.4720    9.0810   33.3280 C.3   359  INH359      0.0100
     17  C17       21.6390   10.3500   33.1260 C.3   359  INH359     -0.0010
     18  C18       22.4880   11.6010   33.5600 C.3   359  INH359      0.0240
     19  O1        17.1430   12.1030   34.3320 O.3   359  INH359     -0.3950
     20  H22       16.6960   12.2770   35.1520 H     359  INH359      0.2100
     21  O3        26.5070   14.0190   31.7800 O.3   359  INH359     -0.3530
     22  C19       26.1290   15.1870   32.4900 C.3   359  INH359      0.2100
     23  O2        27.4670   11.8090   30.8100 O.3   359  INH359     -0.3580
     24  H23       27.9390   12.5830   31.0940 H     359  INH359      0.2170
@<TRIPOS>BOND
     1    23    24    1
     2    23    12    1
     3    12    13   ar
     4    12    11   ar
     5    13    14   ar
     6    21    11    1
     7    21    22    1
     8    11     1   ar
     9    10     5    1
    10    14    15    1
    11    14     2   ar
    12    15    16    1
    13     1     2   ar
    14     2    18    1
    15    17    16    1
    16    17    18    1
    17    17     6    1
    18     3    18    1
    19     3     4    1
    20     5     6    1
    21     5     4    1
    22     5     9    1
    23     7     6    1
    24     7     8    1
    25     8     9    1
    26    19     9    1
    27    19    20    1
