@<TRIPOS>MOLECULE
/tmp/ewbell/vina_1lhw_1lhw_lig/vina/vina4.pdbqt
 24 27 0 0 0
SMALL
GASTEIGER

@<TRIPOS>ATOM
      1  C1        19.5850    9.2470   28.8730 C.ar  359  INH359      0.0470
      2  C2        20.6200   10.1740   28.6730 C.ar  359  INH359     -0.0440
      3  C3        21.5390    9.7610   31.0030 C.3   359  INH359      0.0100
      4  C4        22.3330   10.3500   32.1590 C.3   359  INH359      0.0130
      5  C5        23.7190   10.8730   31.7300 C.3   359  INH359     -0.0140
      6  C6        23.5090   11.8790   30.6030 C.3   359  INH359      0.0010
      7  C7        24.9110   12.5070   30.4240 C.3   359  INH359      0.0080
      8  C8        25.4890   12.4670   31.8470 C.3   359  INH359      0.0330
      9  C9        24.4410   11.7760   32.7110 C.3   359  INH359      0.1260
     10  C10       24.6090    9.6680   31.3050 C.3   359  INH359      0.0180
     11  C11       18.8760    8.7030   27.8420 C.ar  359  INH359      0.1010
     12  C12       19.1690    9.0560   26.5400 C.ar  359  INH359      0.0990
     13  C13       20.1780    9.9840   26.3140 C.ar  359  INH359      0.0470
     14  C14       20.9000   10.5460   27.3460 C.ar  359  INH359     -0.0490
     15  C15       21.9950   11.5580   26.9940 C.3   359  INH359      0.0390
     16  C16       22.6440   12.2310   28.2090 C.3   359  INH359      0.0100
     17  C17       22.8150   11.2550   29.3760 C.3   359  INH359     -0.0010
     18  C18       21.4000   10.7500   29.8410 C.3   359  INH359      0.0240
     19  O1        25.1090   11.0620   33.7850 O.3   359  INH359     -0.3950
     20  H22       25.2740   10.1660   33.5150 H     359  INH359      0.2100
     21  O3        17.8340    7.7770   27.9420 O.3   359  INH359     -0.3530
     22  C19       18.2110    6.4260   28.1570 C.3   359  INH359      0.2100
     23  O2        18.4620    8.4860   25.5240 O.3   359  INH359     -0.3580
     24  H23       18.9100    7.7020   25.2270 H     359  INH359      0.2170
@<TRIPOS>BOND
     1    24    23    1
     2    23    12    1
     3    13    12   ar
     4    13    14   ar
     5    12    11   ar
     6    15    14    1
     7    15    16    1
     8    14     2   ar
     9    11    21    1
    10    11     1   ar
    11    21    22    1
    12    16    17    1
    13     2     1   ar
    14     2    18    1
    15    17    18    1
    16    17     6    1
    17    18     3    1
    18     7     6    1
    19     7     8    1
    20     6     5    1
    21     3     4    1
    22    10     5    1
    23     5     4    1
    24     5     9    1
    25     8     9    1
    26     9    19    1
    27    20    19    1
