@<TRIPOS>MOLECULE
/tmp/ewbell/vina_1lhw_1lhw_lig/vina/vina5.pdbqt
 24 27 0 0 0
SMALL
GASTEIGER

@<TRIPOS>ATOM
      1  C1        19.3990    9.8940   28.0250 C.ar  359  INH359      0.0470
      2  C2        18.7530    9.1470   27.0270 C.ar  359  INH359     -0.0440
      3  C3        19.3600   10.8550   25.2510 C.3   359  INH359      0.0100
      4  C4        18.9740   11.4590   23.9090 C.3   359  INH359      0.0130
      5  C5        18.8070   10.4000   22.8000 C.3   359  INH359     -0.0140
      6  C6        17.7870    9.3740   23.2860 C.3   359  INH359      0.0010
      7  C7        17.5210    8.5170   22.0260 C.3   359  INH359      0.0080
      8  C8        17.6900    9.5290   20.8820 C.3   359  INH359      0.0330
      9  C9        18.1000   10.8430   21.5350 C.3   359  INH359      0.1260
     10  C10       20.1950    9.7690   22.4860 C.3   359  INH359      0.0180
     11  C11       19.7610    9.3580   29.2260 C.ar  359  INH359      0.1010
     12  C12       19.4990    8.0310   29.4980 C.ar  359  INH359      0.0990
     13  C13       18.8460    7.2710   28.5350 C.ar  359  INH359      0.0470
     14  C14       18.4680    7.8010   27.3170 C.ar  359  INH359     -0.0490
     15  C15       17.7560    6.8820   26.3200 C.3   359  INH359      0.0390
     16  C16       17.2530    7.5920   25.0580 C.3   359  INH359      0.0100
     17  C17       18.2330    8.6670   24.5820 C.3   359  INH359     -0.0010
     18  C18       18.3750    9.7690   25.6950 C.3   359  INH359      0.0240
     19  O1        18.9480   11.5840   20.6160 O.3   359  INH359     -0.3950
     20  H22       18.6930   11.3900   19.7230 H     359  INH359      0.2100
     21  O3        20.4050   10.0200   30.2750 O.3   359  INH359     -0.3530
     22  C19       21.7500   10.4070   30.0430 C.3   359  INH359      0.2100
     23  O2        19.8870    7.5100   30.6960 O.3   359  INH359     -0.3580
     24  H23       19.7350    8.1490   31.3830 H     359  INH359      0.2170
@<TRIPOS>BOND
     1    20    19    1
     2    19     9    1
     3     8     9    1
     4     8     7    1
     5     9     5    1
     6     7     6    1
     7    10     5    1
     8     5     6    1
     9     5     4    1
    10     6    17    1
    11     4     3    1
    12    17    16    1
    13    17    18    1
    14    16    15    1
    15     3    18    1
    16    18     2    1
    17    15    14    1
    18     2    14   ar
    19     2     1   ar
    20    14    13   ar
    21     1    11   ar
    22    13    12   ar
    23    11    12   ar
    24    11    21    1
    25    12    23    1
    26    22    21    1
    27    23    24    1
