@<TRIPOS>MOLECULE
/tmp/ewbell/vina_1lhw_1lhw_lig/vina/vina1.pdbqt
 24 27 0 0 0
SMALL
GASTEIGER

@<TRIPOS>ATOM
      1  C1        20.8080    8.9350   33.5680 C.ar  359  INH359      0.0470
      2  C2        21.1930   10.2850   33.5960 C.ar  359  INH359     -0.0440
      3  C3        23.4250    9.7490   32.5140 C.3   359  INH359      0.0100
      4  C4        24.8740   10.1820   32.3500 C.3   359  INH359      0.0130
      5  C5        25.0130   11.6380   31.8610 C.3   359  INH359     -0.0140
      6  C6        24.2510   12.5310   32.8350 C.3   359  INH359      0.0010
      7  C7        24.6540   13.9580   32.3970 C.3   359  INH359      0.0080
      8  C8        26.0900   13.7650   31.8840 C.3   359  INH359      0.0330
      9  C9        26.3830   12.2740   31.9920 C.3   359  INH359      0.1260
     10  C10       24.4750   11.7390   30.4030 C.3   359  INH359      0.0180
     11  C11       19.5100    8.5370   33.7010 C.ar  359  INH359      0.1010
     12  C12       18.5130    9.4770   33.8670 C.ar  359  INH359      0.0990
     13  C13       18.8660   10.8190   33.9150 C.ar  359  INH359      0.0470
     14  C14       20.1760   11.2370   33.7870 C.ar  359  INH359     -0.0490
     15  C15       20.4640   12.7400   33.8500 C.3   359  INH359      0.0390
     16  C16       21.9550   13.0960   33.8400 C.3   359  INH359      0.0100
     17  C17       22.7520   12.1770   32.9120 C.3   359  INH359     -0.0010
     18  C18       22.6440   10.6960   33.4320 C.3   359  INH359      0.0240
     19  O1        27.3100   11.8950   30.9400 O.3   359  INH359     -0.3950
     20  H22       27.9060   12.6150   30.7690 H     359  INH359      0.2100
     21  O3        19.0340    7.2230   33.6840 O.3   359  INH359     -0.3530
     22  C19       19.9940    6.2030   33.9090 C.3   359  INH359      0.2100
     23  O2        17.2210    9.0590   33.9780 O.3   359  INH359     -0.3580
     24  H23       17.2020    8.1750   34.3270 H     359  INH359      0.2170
@<TRIPOS>BOND
     1    10     5    1
     2    20    19    1
     3    19     9    1
     4     5     9    1
     5     5     4    1
     6     5     6    1
     7     8     9    1
     8     8     7    1
     9     4     3    1
    10     7     6    1
    11     3    18    1
    12     6    17    1
    13    17    18    1
    14    17    16    1
    15    18     2    1
    16     1     2   ar
    17     1    11   ar
    18     2    14   ar
    19    21    11    1
    20    21    22    1
    21    11    12   ar
    22    14    15    1
    23    14    13   ar
    24    16    15    1
    25    12    13   ar
    26    12    23    1
    27    23    24    1
