@<TRIPOS>MOLECULE
./ligand/1uz4_lig.pdb
 22 22 0 0 0
SMALL
GASTEIGER

@<TRIPOS>ATOM
      1  O1        73.7830   13.6110   34.8480 O.3   413  INH413     -0.3883
      2  C1        74.1710   12.7470   33.8070 C.3   413  INH413      0.0959
      3  C2        73.0980   12.9000   32.6800 C.3   413  INH413      0.1568
      4  O2        72.1200   11.8380   32.7920 O.3   413  INH413     -0.3800
      5  C3        73.6370   12.7820   31.2260 C.2   413  INH413      0.2442
      6  N1        74.8610   12.2400   31.0840 N.am  413  INH413     -0.3127
      7  C4        75.8340   12.0650   32.1660 C.3   413  INH413      0.0190
      8  C5        75.5890   13.0490   33.3080 C.3   413  INH413      0.0266
      9  C6        76.7530   12.9580   34.3400 C.3   413  INH413      0.0509
     10  O3        76.7790   11.6340   34.9250 O.3   413  INH413     -0.3946
     11  O4        72.8590   12.9750   30.2750 O.2   413  INH413     -0.2729
     12  H1        72.9020   13.3930   35.1290 H     413  INH413      0.2099
     13  H2        74.1560   11.7110   34.1760 H     413  INH413      0.0628
     14  H3        72.6120   13.8790   32.8040 H     413  INH413      0.0717
     15  H4        71.4690   11.9330   32.1060 H     413  INH413      0.2105
     16  H5        75.1270   11.9330   30.1700 H     413  INH413      0.1488
     17  H6        76.8460   12.2270   31.7660 H     413  INH413      0.0466
     18  H7        75.7540   11.0390   32.5550 H     413  INH413      0.0466
     19  H8        75.5930   14.0750   32.9120 H     413  INH413      0.0364
     20  H9        76.6000   13.7060   35.1320 H     413  INH413      0.0561
     21  H10       77.7090   13.1530   33.8320 H     413  INH413      0.0561
     22  H11       77.4890   11.5800   35.5540 H     413  INH413      0.2094
@<TRIPOS>BOND
     1     1    12    1
     2     1     2    1
     3     2    13    1
     4     2     8    1
     5     2     3    1
     6     3    14    1
     7     3     5    1
     8     3     4    1
     9     4    15    1
    10     5    11    2
    11     5     6   am
    12     6    16    1
    13     6     7    1
    14     7    18    1
    15     7    17    1
    16     7     8    1
    17     8    19    1
    18     8     9    1
    19     9    21    1
    20     9    20    1
    21     9    10    1
    22    10    22    1
