@<TRIPOS>MOLECULE
/tmp/ewbell/vina_1uz4_1uz4_lig/vina/vina2.pdbqt
 15 15 0 0 0
SMALL
GASTEIGER

@<TRIPOS>ATOM
      1  C1        75.4390   11.3500   32.6180 C.3   413  INH413      0.1630
      2  C2        74.8710   12.4430   31.6550 C.3   413  INH413      0.2390
      3  C3        73.3320   12.4010   31.4340 C.2   413  INH413      0.2490
      4  N1        72.6200   11.6800   32.3200 N.am  413  INH413     -0.3580
      5  C4        73.1820   10.6930   33.2460 C.3   413  INH413      0.1320
      6  C5        74.5100   10.1360   32.7380 C.3   413  INH413      0.0590
      7  O4        72.8170   13.1860   30.6180 O.2   413  INH413     -0.2710
      8  H5        71.6310   11.8300   32.3490 H     413  INH413      0.1620
      9  C6        74.9710    8.9600   33.6490 C.3   413  INH413      0.1730
     10  O3        75.7690    9.4770   34.7410 O.3   413  INH413     -0.4000
     11  H11       76.3990    8.8190   35.0120 H     413  INH413      0.2090
     12  O1        76.7060   10.9970   32.1180 O.3   413  INH413     -0.3920
     13  H1        77.3390   11.0000   32.8270 H     413  INH413      0.2100
     14  O2        75.1230   13.7570   32.2080 O.3   413  INH413     -0.3840
     15  H4        74.2980   14.1610   32.4550 H     413  INH413      0.2100
@<TRIPOS>BOND
     1     7     3    2
     2     3     2    1
     3     3     4   am
     4     2    14    1
     5     2     1    1
     6    12     1    1
     7    12    13    1
     8    14    15    1
     9     4     8    1
    10     4     5    1
    11     1     6    1
    12     6     5    1
    13     6     9    1
    14     9    10    1
    15    10    11    1
