@<TRIPOS>MOLECULE
/tmp/ewbell/vina_1uz4_1uz4_lig/vina/vina1.pdbqt
 15 15 0 0 0
SMALL
GASTEIGER

@<TRIPOS>ATOM
      1  C1        74.2500   12.8180   33.8960 C.3   413  INH413      0.1630
      2  C2        73.1340   12.9090   32.8050 C.3   413  INH413      0.2390
      3  C3        73.6120   12.6780   31.3420 C.2   413  INH413      0.2490
      4  N1        74.8210   12.1070   31.1910 N.am  413  INH413     -0.3580
      5  C4        75.8350   11.9920   32.2430 C.3   413  INH413      0.1320
      6  C5        75.6510   13.0590   33.3200 C.3   413  INH413      0.0590
      7  O4        72.7980   12.8160   30.4120 O.2   413  INH413     -0.2710
      8  H5        75.0450   11.7310   30.2920 H     413  INH413      0.1620
      9  C6        76.8550   13.0220   34.3090 C.3   413  INH413      0.1730
     10  O3        76.9720   11.6960   34.8790 O.3   413  INH413     -0.4000
     11  H11       77.5680   11.7220   35.6190 H     413  INH413      0.2090
     12  O1        73.9180   13.7610   34.8870 O.3   413  INH413     -0.3920
     13  H1        74.5570   13.7220   35.5880 H     413  INH413      0.2100
     14  O2        72.1470   11.8750   33.0320 O.3   413  INH413     -0.3840
     15  H4        72.5640   11.0220   32.9850 H     413  INH413      0.2100
@<TRIPOS>BOND
     1     8     4    1
     2     7     3    2
     3     4     3   am
     4     4     5    1
     5     3     2    1
     6     5     6    1
     7     2    14    1
     8     2     1    1
     9    15    14    1
    10     6     1    1
    11     6     9    1
    12     1    12    1
    13     9    10    1
    14    10    11    1
    15    12    13    1
