@<TRIPOS>MOLECULE
/tmp/ewbell/vina_1uz4_1uz4_lig/vina/vina3.pdbqt
 15 15 0 0 0
SMALL
GASTEIGER

@<TRIPOS>ATOM
      1  C1        75.3890   10.8350   32.1700 C.3   413  INH413      0.1630
      2  C2        74.0360   11.2850   32.8120 C.3   413  INH413      0.2390
      3  C3        73.1410   10.1340   33.3540 C.2   413  INH413      0.2490
      4  N1        73.7400    8.9410   33.5260 N.am  413  INH413     -0.3580
      5  C4        75.0320    8.5580   32.9510 C.3   413  INH413      0.1320
      6  C5        75.3570    9.3750   31.7030 C.3   413  INH413      0.0590
      7  O4        72.0130   10.4060   33.8040 O.2   413  INH413     -0.2710
      8  H5        73.2670    8.2640   34.0900 H     413  INH413      0.1620
      9  C6        76.6370    8.8070   31.0200 C.3   413  INH413      0.1730
     10  O3        76.6660    9.2130   29.6310 O.3   413  INH413     -0.4000
     11  H11       77.2490    9.9580   29.5310 H     413  INH413      0.2090
     12  O1        75.6420   11.7240   31.1080 O.3   413  INH413     -0.3920
     13  H1        74.8260   11.9310   30.6670 H     413  INH413      0.2100
     14  O2        74.2980   12.1170   33.9670 O.3   413  INH413     -0.3840
     15  H4        73.4800   12.4770   34.2900 H     413  INH413      0.2100
@<TRIPOS>BOND
     1    11    10    1
     2    10     9    1
     3    13    12    1
     4     9     6    1
     5    12     1    1
     6     6     1    1
     7     6     5    1
     8     1     2    1
     9     2     3    1
    10     2    14    1
    11     5     4    1
    12     3     4   am
    13     3     7    2
    14     4     8    1
    15    14    15    1
