@<TRIPOS>MOLECULE
/tmp/ewbell/vina_1uz4_1uz4_lig/vina/vina4.pdbqt
 15 15 0 0 0
SMALL
GASTEIGER

@<TRIPOS>ATOM
      1  C1        73.7760   10.9190   33.4410 C.3   413  INH413      0.1630
      2  C2        74.7120    9.6820   33.2430 C.3   413  INH413      0.2390
      3  C3        75.6430    9.7430   31.9990 C.2   413  INH413      0.2490
      4  N1        75.7980   10.9520   31.4270 N.am  413  INH413     -0.3580
      5  C4        74.9340   12.1120   31.6630 C.3   413  INH413      0.1320
      6  C5        73.5440   11.6910   32.1370 C.3   413  INH413      0.0590
      7  O4        76.3560    8.7610   31.7280 O.2   413  INH413     -0.2710
      8  H5        76.5620   11.0680   30.7920 H     413  INH413      0.1620
      9  C6        72.6070   12.9340   32.1900 C.3   413  INH413      0.1730
     10  O3        72.2940   13.2460   33.5680 O.3   413  INH413     -0.4000
     11  H11       72.1440   12.4390   34.0480 H     413  INH413      0.2090
     12  O1        72.5740   10.4270   33.9840 O.3   413  INH413     -0.3920
     13  H1        72.7640    9.9080   34.7570 H     413  INH413      0.2100
     14  O2        75.6160    9.5710   34.3680 O.3   413  INH413     -0.3840
     15  H4        76.4010   10.0780   34.1950 H     413  INH413      0.2100
@<TRIPOS>BOND
     1     8     4    1
     2     4     5    1
     3     4     3   am
     4     5     6    1
     5     7     3    2
     6     3     2    1
     7     6     9    1
     8     6     1    1
     9     9    10    1
    10     2     1    1
    11     2    14    1
    12     1    12    1
    13    10    11    1
    14    12    13    1
    15    15    14    1
