@<TRIPOS>MOLECULE
/tmp/ewbell/vina_1uz4_1uz4_lig/vina/vina5.pdbqt
 15 15 0 0 0
SMALL
GASTEIGER

@<TRIPOS>ATOM
      1  C1        75.1740    9.8900   32.4480 C.3   413  INH413      0.1630
      2  C2        73.9230   10.4290   33.2170 C.3   413  INH413      0.2390
      3  C3        72.9830    9.3400   33.8060 C.2   413  INH413      0.2490
      4  N1        73.4890    8.0960   33.8950 N.am  413  INH413     -0.3580
      5  C4        74.6910    7.6260   33.1990 C.3   413  INH413      0.1320
      6  C5        74.9770    8.4530   31.9480 C.3   413  INH413      0.0590
      7  O4        71.9250    9.6890   34.3590 O.2   413  INH413     -0.2710
      8  H5        73.0100    7.4420   34.4800 H     413  INH413      0.1620
      9  C6        76.1420    7.8030   31.1420 C.3   413  INH413      0.1730
     10  O3        75.7390    7.6340   29.7620 O.3   413  INH413     -0.4000
     11  H11       76.1120    8.3320   29.2360 H     413  INH413      0.2090
     12  O1        75.4110   10.7880   31.3910 O.3   413  INH413     -0.3920
     13  H1        74.5890   11.1760   31.1140 H     413  INH413      0.2100
     14  O2        74.3530   11.1980   34.3660 O.3   413  INH413     -0.3840
     15  H4        74.5540   10.6090   35.0840 H     413  INH413      0.2100
@<TRIPOS>BOND
     1    11    10    1
     2    10     9    1
     3    13    12    1
     4     9     6    1
     5    12     1    1
     6     6     1    1
     7     6     5    1
     8     1     2    1
     9     5     4    1
    10     2     3    1
    11     2    14    1
    12     3     4   am
    13     3     7    2
    14     4     8    1
    15    14    15    1
