@<TRIPOS>MOLECULE
./ligand/1s39_lig.pdb
 20 21 0 0 0
SMALL
GASTEIGER

@<TRIPOS>ATOM
      1  C1        18.1570   17.1460   19.1100 C.ar  374  INH374     -0.0609
      2  C2        16.8480   16.7120   18.7390 C.ar  374  INH374     -0.0600
      3  C3        15.8400   16.5470   19.7200 C.ar  374  INH374     -0.0400
      4  C4        16.1130   16.8130   21.1020 C.ar  374  INH374      0.0419
      5  N1        15.0980   16.6460   22.0520 N.pl3 374  INH374     -0.3066
      6  C5        15.3240   16.8840   23.3250 C.3   374  INH374      0.2065
      7  N2        14.3360   16.7300   24.3030 N.3   374  INH374     -0.2905
      8  N3        16.6160   17.3270   23.8100 N.am  374  INH374     -0.2741
      9  C6        17.7220   17.5250   22.8910 C.2   374  INH374      0.2485
     10  O1        18.8180   17.9050   23.3400 O.2   374  INH374     -0.2700
     11  C7        17.4410   17.2520   21.4730 C.ar  374  INH374      0.0576
     12  C8        18.4480   17.4130   20.4680 C.ar  374  INH374     -0.0478
     13  H1        18.9240   17.2700   18.3540 H     374  INH374      0.0618
     14  H2        16.6240   16.5070   17.6980 H     374  INH374      0.0618
     15  H3        14.8510   16.2160   19.4230 H     374  INH374      0.0636
     16  H4        13.3910   16.4180   24.0360 H     374  INH374      0.1219
     17  H5        14.5530   16.9280   25.2900 H     374  INH374      0.1219
     18  H6        16.7470   17.4980   24.7870 H     374  INH374      0.1525
     19  H7        19.4410   17.7420   20.7500 H     374  INH374      0.0626
     20  H8        14.1640   16.3330   21.7500 H     374  INH374      0.1495
@<TRIPOS>BOND
     1     1    13    1
     2     1    12   ar
     3     1     2   ar
     4     2    14    1
     5     2     3   ar
     6     3    15    1
     7     3     4   ar
     8     4    11   ar
     9     4     5    1
    10     5    20    1
    11     5     6    1
    12     6     8    1
    13     6     7    1
    14     7    17    1
    15     7    16    1
    16     8    18    1
    17     8     9   am
    18     9    11    1
    19     9    10    2
    20    11    12   ar
    21    12    19    1
