@<TRIPOS>MOLECULE
/tmp/ewbell/vina_1s39_1s39_lig/vina/vina1.pdbqt
 16 17 0 0 0
SMALL
GASTEIGER

@<TRIPOS>ATOM
      1  C1        18.2740   17.2360   19.2940 C.ar  374  INH374      0.0010
      2  C2        16.9860   16.7680   18.8930 C.ar  374  INH374      0.0020
      3  C3        15.9570   16.5890   19.8490 C.ar  374  INH374      0.0370
      4  C4        16.1870   16.8740   21.2350 C.ar  374  INH374      0.1370
      5  N1        15.1520   16.6910   22.1600 N.pl3 374  INH374     -0.0500
      6  C5        15.3390   16.9460   23.4360 C.3   374  INH374      0.7550
      7  N2        14.3300   16.7780   24.3900 N.3   374  INH374     -0.3870
      8  N3        16.6080   17.4240   23.9500 N.am  374  INH374     -0.3120
      9  C6        17.7320   17.6400   23.0580 C.2   374  INH374      0.2560
     10  O1        18.8070   18.0490   23.5320 O.2   374  INH374     -0.2670
     11  C7        17.4950   17.3470   21.6360 C.ar  374  INH374      0.0650
     12  C8        18.5240   17.5230   20.6560 C.ar  374  INH374      0.0190
     13  H4        13.4000   16.4410   24.1010 H     374  INH374      0.1530
     14  H5        14.5170   16.9900   25.3800 H     374  INH374      0.1530
     15  H6        16.7090   17.6070   24.9280 H     374  INH374      0.1660
     16  H8        14.2340   16.3540   21.8370 H     374  INH374      0.2710
@<TRIPOS>BOND
     1     2     1   ar
     2     2     3   ar
     3     1    12   ar
     4     3     4   ar
     5    12    11   ar
     6     4    11   ar
     7     4     5    1
     8    11     9    1
     9    16     5    1
    10     5     6    1
    11     9    10    2
    12     9     8   am
    13     6     8    1
    14     6     7    1
    15     8    15    1
    16    13     7    1
    17     7    14    1
