@<TRIPOS>MOLECULE
/tmp/ewbell/vina_1s39_1s39_lig/vina/vina4.pdbqt
 16 17 0 0 0
SMALL
GASTEIGER

@<TRIPOS>ATOM
      1  C1        20.1260   19.2350   12.2190 C.ar  374  INH374      0.0010
      2  C2        20.1700   18.1050   11.3480 C.ar  374  INH374      0.0020
      3  C3        21.3970   17.4490   11.0810 C.ar  374  INH374      0.0370
      4  C4        22.6160   17.9060   11.6800 C.ar  374  INH374      0.1370
      5  N1        23.8160   17.2380   11.4030 N.pl3 374  INH374     -0.0500
      6  C5        24.9470   17.6380   11.9410 C.3   374  INH374      0.7550
      7  N2        26.1640   16.9970   11.6900 N.3   374  INH374     -0.3870
      8  N3        25.0150   18.7740   12.8380 N.am  374  INH374     -0.3120
      9  C6        23.8180   19.5210   13.1780 C.2   374  INH374      0.2560
     10  O1        23.9120   20.4920   13.9500 O.2   374  INH374     -0.2670
     11  C7        22.5670   19.0520   12.5620 C.ar  374  INH374      0.0650
     12  C8        21.3180   19.7030   12.8210 C.ar  374  INH374      0.0190
     13  H4        26.1960   16.1810   11.0620 H     374  INH374      0.1530
     14  H5        27.0280   17.3410   12.1320 H     374  INH374      0.1530
     15  H6        25.8960   19.0460   13.2280 H     374  INH374      0.1660
     16  H8        23.8120   16.4250   10.7710 H     374  INH374      0.2710
@<TRIPOS>BOND
     1    16     5    1
     2    13     7    1
     3     3     2   ar
     4     3     4   ar
     5     2     1   ar
     6     5     4    1
     7     5     6    1
     8     4    11   ar
     9     7     6    1
    10     7    14    1
    11     6     8    1
    12     1    12   ar
    13    11    12   ar
    14    11     9    1
    15     8     9   am
    16     8    15    1
    17     9    10    2
