@<TRIPOS>MOLECULE
/tmp/ewbell/vina_1s39_1s39_lig/vina/vina5.pdbqt
 16 17 0 0 0
SMALL
GASTEIGER

@<TRIPOS>ATOM
      1  C1        11.8490   15.2530   15.8640 C.ar  374  INH374      0.0010
      2  C2        12.4560   16.4160   15.2980 C.ar  374  INH374      0.0020
      3  C3        13.6240   16.9710   15.8740 C.ar  374  INH374      0.0370
      4  C4        14.2210   16.3770   17.0350 C.ar  374  INH374      0.1370
      5  N1        15.3790   16.9430   17.5830 N.pl3 374  INH374     -0.0500
      6  C5        15.9440   16.4160   18.6470 C.3   374  INH374      0.7550
      7  N2        17.1010   16.9510   19.2220 N.3   374  INH374     -0.3870
      8  N3        15.4110   15.2380   19.3010 N.am  374  INH374     -0.3120
      9  C6        14.2140   14.5900   18.7960 C.2   374  INH374      0.2560
     10  O1        13.7830   13.5810   19.3820 O.2   374  INH374     -0.2670
     11  C7        13.6030   15.2000   17.6050 C.ar  374  INH374      0.0650
     12  C8        12.4210   14.6520   17.0100 C.ar  374  INH374      0.0190
     13  H4        17.5400   17.7890   18.8140 H     374  INH374      0.1530
     14  H5        17.5150   16.5080   20.0550 H     374  INH374      0.1530
     15  H6        15.8720   14.8670   20.1080 H     374  INH374      0.1660
     16  H8        15.7910   17.7810   17.1490 H     374  INH374      0.2710
@<TRIPOS>BOND
     1     2     1   ar
     2     2     3   ar
     3     1    12   ar
     4     3     4   ar
     5    12    11   ar
     6     4     5    1
     7     4    11   ar
     8    16     5    1
     9     5     6    1
    10    11     9    1
    11     6     7    1
    12     6     8    1
    13     9     8   am
    14     9    10    2
    15    13     7    1
    16     7    14    1
    17     8    15    1
