@<TRIPOS>MOLECULE
/tmp/ewbell/vina_1s39_1s39_lig/vina/vina2.pdbqt
 16 17 0 0 0
SMALL
GASTEIGER

@<TRIPOS>ATOM
      1  C1        17.7530   17.5890   23.3250 C.ar  374  INH374      0.0010
      2  C2        16.4030   17.2080   23.5940 C.ar  374  INH374      0.0020
      3  C3        15.5410   16.8230   22.5390 C.ar  374  INH374      0.0370
      4  C4        16.0040   16.8080   21.1820 C.ar  374  INH374      0.1370
      5  N1        15.1330   16.4200   20.1580 N.pl3 374  INH374     -0.0500
      6  C5        15.5350   16.3980   18.9060 C.3   374  INH374      0.7550
      7  N2        14.6950   16.0150   17.8560 N.3   374  INH374     -0.3870
      8  N3        16.8830   16.7670   18.5220 N.am  374  INH374     -0.3120
      9  C6        17.8490   17.1810   19.5230 C.2   374  INH374      0.2560
     10  O1        18.9980   17.4920   19.1600 O.2   374  INH374     -0.2670
     11  C7        17.3730   17.1960   20.9150 C.ar  374  INH374      0.0650
     12  C8        18.2310   17.5830   21.9940 C.ar  374  INH374      0.0190
     13  H4        13.7210   15.7390   18.0490 H     374  INH374      0.1530
     14  H5        15.0490   16.0100   16.8890 H     374  INH374      0.1530
     15  H6        17.1500   16.7360   17.5590 H     374  INH374      0.1660
     16  H8        14.1660   16.1490   20.3870 H     374  INH374      0.2710
@<TRIPOS>BOND
     1    14     7    1
     2    15     8    1
     3     7    13    1
     4     7     6    1
     5     8     6    1
     6     8     9   am
     7     6     5    1
     8    10     9    2
     9     9    11    1
    10     5    16    1
    11     5     4    1
    12    11     4   ar
    13    11    12   ar
    14     4     3   ar
    15    12     1   ar
    16     3     2   ar
    17     1     2   ar
