@<TRIPOS>MOLECULE
/tmp/ewbell/vina_1s39_1s39_lig/vina/vina3.pdbqt
 16 17 0 0 0
SMALL
GASTEIGER

@<TRIPOS>ATOM
      1  C1        16.2680   16.8920   17.5690 C.ar  374  INH374      0.0010
      2  C2        15.1260   16.5100   18.3360 C.ar  374  INH374      0.0020
      3  C3        15.1790   16.5060   19.7510 C.ar  374  INH374      0.0370
      4  C4        16.3780   16.8860   20.4400 C.ar  374  INH374      0.1370
      5  N1        16.4030   16.8770   21.8400 N.pl3 374  INH374     -0.0500
      6  C5        17.4910   17.2220   22.4940 C.3   374  INH374      0.7550
      7  N2        17.5550   17.2270   23.8910 N.3   374  INH374     -0.3870
      8  N3        18.7050   17.6250   21.8130 N.am  374  INH374     -0.3120
      9  C6        18.7630   17.6620   20.3630 C.2   374  INH374      0.2560
     10  O1        19.8210   18.0120   19.8110 O.2   374  INH374     -0.2670
     11  C7        17.5320   17.2720   19.6580 C.ar  374  INH374      0.0650
     12  C8        17.4610   17.2700   18.2280 C.ar  374  INH374      0.0190
     13  H4        16.7310   16.9520   24.4460 H     374  INH374      0.1530
     14  H5        18.4250   17.5050   24.3650 H     374  INH374      0.1530
     15  H6        19.5110   17.8810   22.3480 H     374  INH374      0.1660
     16  H8        15.5610   16.5970   22.3630 H     374  INH374      0.2710
@<TRIPOS>BOND
     1     1    12   ar
     2     1     2   ar
     3    12    11   ar
     4     2     3   ar
     5    11     9    1
     6    11     4   ar
     7     3     4   ar
     8    10     9    2
     9     9     8   am
    10     4     5    1
    11     8    15    1
    12     8     6    1
    13     5    16    1
    14     5     6    1
    15     6     7    1
    16     7    14    1
    17     7    13    1
