@<TRIPOS>MOLECULE
./ligand/2add_lig.pdb
 45 46 0 0 0
SMALL
GASTEIGER

@<TRIPOS>ATOM
      1  C1         7.1100   71.6790   -2.8010 C.3   540  INH540      0.1912
      2  C2         6.9920   72.5690   -1.5430 C.3   540  INH540      0.1342
      3  C3         5.5440   73.0450   -1.3470 C.3   540  INH540      0.1141
      4  C4         5.1400   73.8130   -2.6010 C.3   540  INH540      0.1119
      5  C5         5.2670   72.9050   -3.8430 C.3   540  INH540      0.1130
      6  C6         4.9040   73.6120   -5.1420 C.3   540  INH540      0.0730
      7  O1         6.3650   70.4210   -2.5950 O.3   540  INH540     -0.3125
      8  O2         7.4430   71.8310   -0.3950 O.3   540  INH540     -0.3841
      9  O3         5.4260   73.8920   -0.1930 O.3   540  INH540     -0.3864
     10  O4         3.7960   74.2580   -2.4520 O.3   540  INH540     -0.3865
     11  O5         6.6170   72.4170   -3.9800 O.3   540  INH540     -0.3404
     12  O6         5.7930   74.6990   -5.3540 O.3   540  INH540     -0.3924
     13  C7         7.9730   68.4490   -2.5710 C.3   540  INH540      0.1009
     14  C8         6.8270   69.2150   -3.2700 C.3   540  INH540      0.2252
     15  C9         5.5410   68.3770   -3.5600 C.3   540  INH540      0.1395
     16  C10        5.0850   68.9640   -4.8950 C.3   540  INH540      0.1145
     17  C11        6.4580   69.1430   -5.5450 C.3   540  INH540      0.1134
     18  C12        6.5590   70.2060   -6.6180 C.3   540  INH540      0.0730
     19  O7         7.6340   68.0180   -1.2670 O.3   540  INH540     -0.3896
     20  O8         7.3660   69.5250   -4.5390 O.3   540  INH540     -0.3362
     21  O9         4.5300   68.5590   -2.5600 O.3   540  INH540     -0.3837
     22  O10        4.2560   68.0620   -5.6530 O.3   540  INH540     -0.3864
     23  O11        7.8160   70.0460   -7.2690 O.3   540  INH540     -0.3924
     24  H1         8.1700   71.4330   -2.9630 H     540  INH540      0.0939
     25  H2         7.6350   73.4520   -1.6720 H     540  INH540      0.0671
     26  H3         4.8860   72.1730   -1.2190 H     540  INH540      0.0648
     27  H4         5.8000   74.6840   -2.7240 H     540  INH540      0.0647
     28  H5         4.5880   72.0500   -3.7080 H     540  INH540      0.0647
     29  H6         3.8730   73.9890   -5.0780 H     540  INH540      0.0584
     30  H7         4.9850   72.9040   -5.9800 H     540  INH540      0.0584
     31  H8         6.8940   71.0660   -0.2750 H     540  INH540      0.2101
     32  H9         5.6790   73.4070    0.5830 H     540  INH540      0.2100
     33  H10        3.7300   74.8150   -1.6850 H     540  INH540      0.2100
     34  H11        5.5660   75.1400   -6.1640 H     540  INH540      0.2095
     35  H12        8.8490   69.1120   -2.5050 H     540  INH540      0.0612
     36  H13        8.2260   67.5670   -3.1770 H     540  INH540      0.0612
     37  H14        5.7780   67.3070   -3.6490 H     540  INH540      0.0675
     38  H15        4.5580   69.9210   -4.7640 H     540  INH540      0.0648
     39  H16        6.7580   68.1780   -5.9810 H     540  INH540      0.0647
     40  H17        5.7420   70.0840   -7.3450 H     540  INH540      0.0584
     41  H18        6.4970   71.2050   -6.1620 H     540  INH540      0.0584
     42  H19        6.7000   67.8540   -1.2200 H     540  INH540      0.2096
     43  H20        3.7700   68.0320   -2.7780 H     540  INH540      0.2101
     44  H21        4.0020   68.4760   -6.4700 H     540  INH540      0.2100
     45  H22        7.9060   70.7030   -7.9500 H     540  INH540      0.2095
@<TRIPOS>BOND
     1     1    24    1
     2     1    11    1
     3     1     7    1
     4     1     2    1
     5     2    25    1
     6     2     8    1
     7     2     3    1
     8     3    26    1
     9     3     9    1
    10     3     4    1
    11     4    27    1
    12     4    10    1
    13     4     5    1
    14     5    28    1
    15     5    11    1
    16     5     6    1
    17     6    30    1
    18     6    29    1
    19     6    12    1
    20     7    14    1
    21     8    31    1
    22     9    32    1
    23    10    33    1
    24    12    34    1
    25    13    14    1
    26    13    36    1
    27    13    35    1
    28    13    19    1
    29    14    20    1
    30    14    15    1
    31    15    37    1
    32    15    21    1
    33    15    16    1
    34    16    38    1
    35    16    22    1
    36    16    17    1
    37    17    39    1
    38    17    20    1
    39    17    18    1
    40    18    41    1
    41    18    40    1
    42    18    23    1
    43    19    42    1
    44    21    43    1
    45    22    44    1
    46    23    45    1
