@<TRIPOS>MOLECULE
/tmp/ewbell/vina_2add_2add_lig/vina/vina5.pdbqt
 31 32 0 0 0
SMALL
GASTEIGER

@<TRIPOS>ATOM
      1  O1         6.3310   71.9990   -3.4800 O.3   540  INH540     -0.3180
      2  C1         6.7190   73.2730   -2.8440 C.3   540  INH540      0.2950
      3  O5         6.8850   74.3500   -3.8390 O.3   540  INH540     -0.3480
      4  C5         5.6620   74.7260   -4.5040 C.3   540  INH540      0.1790
      5  C4         4.5940   75.1590   -3.4780 C.3   540  INH540      0.1800
      6  C3         4.3230   74.0260   -2.4940 C.3   540  INH540      0.1830
      7  C2         5.6530   73.6840   -1.8030 C.3   540  INH540      0.2040
      8  C6         6.0070   75.8180   -5.5070 C.3   540  INH540      0.1980
      9  O6         5.6200   77.0810   -4.9840 O.3   540  INH540     -0.3980
     10  H11        4.9140   77.4380   -5.5100 H     540  INH540      0.2090
     11  O4         3.3790   75.4900   -4.1410 O.3   540  INH540     -0.3900
     12  H10        3.1200   76.3740   -3.9040 H     540  INH540      0.2100
     13  O3         3.3290   74.4320   -1.5380 O.3   540  INH540     -0.3900
     14  H9         3.2980   73.8030   -0.8290 H     540  INH540      0.2100
     15  O2         5.4740   72.6170   -0.8580 O.3   540  INH540     -0.3880
     16  H8         6.3210   72.3420   -0.5290 H     540  INH540      0.2100
     17  C8         7.2150   70.8490   -3.3420 C.3   540  INH540      0.2170
     18  O8         7.6770   70.4150   -4.6050 O.3   540  INH540     -0.3410
     19  C11        7.0090   69.2310   -4.9710 C.3   540  INH540      0.1800
     20  C10        5.7520   69.1140   -4.1080 C.3   540  INH540      0.1830
     21  C9         6.3160   69.6880   -2.8090 C.3   540  INH540      0.2140
     22  C7         8.5190   71.0930   -2.5480 C.3   540  INH540      0.2350
     23  O7         9.6360   71.3320   -3.3830 O.3   540  INH540     -0.3950
     24  H19        9.3380   71.5930   -4.2450 H     540  INH540      0.2090
     25  C12        6.7900   69.3260   -6.4670 C.3   540  INH540      0.1980
     26  O11        5.7370   68.4290   -6.8080 O.3   540  INH540     -0.3980
     27  H22        6.0900   67.5530   -6.9160 H     540  INH540      0.2090
     28  O10        5.3260   67.7440   -3.9800 O.3   540  INH540     -0.3900
     29  H21        4.9780   67.5990   -3.1080 H     540  INH540      0.2100
     30  O9         5.2550   70.1590   -1.9670 O.3   540  INH540     -0.3870
     31  H20        5.1610   69.5780   -1.2210 H     540  INH540      0.2100
@<TRIPOS>BOND
     1    27    26    1
     2    26    25    1
     3    25    19    1
     4    10     9    1
     5     8     9    1
     6     8     4    1
     7    19    18    1
     8    19    20    1
     9    18    17    1
    10     4     3    1
    11     4     5    1
    12    24    23    1
    13    11    12    1
    14    11     5    1
    15    20    28    1
    16    20    21    1
    17    28    29    1
    18     3     2    1
    19     1    17    1
    20     1     2    1
    21     5     6    1
    22    23    22    1
    23    17    21    1
    24    17    22    1
    25     2     7    1
    26    21    30    1
    27     6     7    1
    28     6    13    1
    29    30    31    1
    30     7    15    1
    31    13    14    1
    32    15    16    1
