@<TRIPOS>MOLECULE
/tmp/ewbell/vina_2add_2add_lig/vina/vina3.pdbqt
 31 32 0 0 0
SMALL
GASTEIGER

@<TRIPOS>ATOM
      1  O1         7.4560   70.3910   -3.7090 O.3   540  INH540     -0.3180
      2  C1         8.4230   69.3000   -3.4760 C.3   540  INH540      0.2950
      3  O5         9.7770   69.6660   -3.9340 O.3   540  INH540     -0.3480
      4  C5        10.3770   70.7430   -3.1840 C.3   540  INH540      0.1790
      5  C4        10.4380   70.3930   -1.6820 C.3   540  INH540      0.1800
      6  C3         9.0370   70.1090   -1.1530 C.3   540  INH540      0.1830
      7  C2         8.4590   68.9450   -1.9720 C.3   540  INH540      0.2040
      8  C6        11.7460   71.0140   -3.7930 C.3   540  INH540      0.1980
      9  O6        12.0550   72.3950   -3.6680 O.3   540  INH540     -0.3980
     10  H11       11.3700   72.8280   -3.1730 H     540  INH540      0.2090
     11  O4        10.9950   71.4770   -0.9470 O.3   540  INH540     -0.3900
     12  H10       11.1720   72.2020   -1.5360 H     540  INH540      0.2100
     13  O3         9.0960   69.7830    0.2450 O.3   540  INH540     -0.3900
     14  H9         8.4880   70.3310    0.7240 H     540  INH540      0.2100
     15  O2         7.1310   68.6220   -1.5280 O.3   540  INH540     -0.3880
     16  H8         6.7890   67.9060   -2.0500 H     540  INH540      0.2100
     17  C8         6.6320   70.3520   -4.9110 C.3   540  INH540      0.2170
     18  O8         6.7790   71.5430   -5.6590 O.3   540  INH540     -0.3410
     19  C11        5.6320   72.3450   -5.4980 C.3   540  INH540      0.1800
     20  C10        4.8850   71.8540   -4.2580 C.3   540  INH540      0.1830
     21  C9         5.1540   70.3580   -4.4090 C.3   540  INH540      0.2140
     22  C7         6.9810   69.2440   -5.9310 C.3   540  INH540      0.2350
     23  O7         5.8370   68.6650   -6.5290 O.3   540  INH540     -0.3950
     24  H19        5.9590   68.6210   -7.4700 H     540  INH540      0.2090
     25  C12        6.1310   73.7740   -5.4610 C.3   540  INH540      0.1980
     26  O11        5.0690   74.5900   -4.9740 O.3   540  INH540     -0.3980
     27  H22        4.8890   75.2820   -5.6000 H     540  INH540      0.2090
     28  O10        3.4840   72.1840   -4.3220 O.3   540  INH540     -0.3900
     29  H21        3.3790   73.1290   -4.2980 H     540  INH540      0.2100
     30  O9         5.0000   69.6910   -3.1480 O.3   540  INH540     -0.3870
     31  H20        5.3740   68.8200   -3.2040 H     540  INH540      0.2100
@<TRIPOS>BOND
     1    24    23    1
     2    23    22    1
     3    22    17    1
     4    18    19    1
     5    18    17    1
     6    27    26    1
     7    19    25    1
     8    19    20    1
     9    25    26    1
    10    17    21    1
    11    17     1    1
    12    21    20    1
    13    21    30    1
    14    28    29    1
    15    28    20    1
    16     3     2    1
    17     3     4    1
    18     8     9    1
    19     8     4    1
    20     1     2    1
    21     9    10    1
    22     2     7    1
    23    31    30    1
    24     4     5    1
    25    16    15    1
    26     7    15    1
    27     7     6    1
    28     5     6    1
    29     5    11    1
    30    12    11    1
    31     6    13    1
    32    13    14    1
