@<TRIPOS>MOLECULE
/tmp/ewbell/vina_2add_2add_lig/vina/vina1.pdbqt
 31 32 0 0 0
SMALL
GASTEIGER

@<TRIPOS>ATOM
      1  O1         6.3980   70.5450   -2.2470 O.3   540  INH540     -0.3180
      2  C1         6.9690   71.8670   -2.5740 C.3   540  INH540      0.2950
      3  O5         6.2750   72.4920   -3.7160 O.3   540  INH540     -0.3480
      4  C5         4.9000   72.8350   -3.4490 C.3   540  INH540      0.1790
      5  C4         4.8000   73.7780   -2.2310 C.3   540  INH540      0.1800
      6  C3         5.4170   73.1160   -1.0040 C.3   540  INH540      0.1830
      7  C2         6.8820   72.7930   -1.3400 C.3   540  INH540      0.2040
      8  C6         4.3260   73.4390   -4.7230 C.3   540  INH540      0.1980
      9  O6         4.0000   74.8040   -4.4960 O.3   540  INH540     -0.3980
     10  H11        4.2800   75.3230   -5.2400 H     540  INH540      0.2090
     11  O4         3.4360   74.0790   -1.9520 O.3   540  INH540     -0.3900
     12  H10        2.9300   74.0250   -2.7550 H     540  INH540      0.2100
     13  O3         5.3240   73.9960    0.1280 O.3   540  INH540     -0.3900
     14  H9         5.9430   73.7220    0.7930 H     540  INH540      0.2100
     15  O2         7.5310   72.1630   -0.2240 O.3   540  INH540     -0.3880
     16  H8         7.7510   71.2670   -0.4520 H     540  INH540      0.2100
     17  C8         6.9540   69.3630   -2.8920 C.3   540  INH540      0.2170
     18  O8         7.6010   69.7070   -4.1000 O.3   540  INH540     -0.3410
     19  C11        6.8010   69.3170   -5.1920 C.3   540  INH540      0.1800
     20  C10        5.3790   69.0910   -4.6750 C.3   540  INH540      0.1830
     21  C9         5.7260   68.4950   -3.3120 C.3   540  INH540      0.2140
     22  C7         8.0510   68.6170   -2.0990 C.3   540  INH540      0.2350
     23  O7         7.5940   67.4040   -1.5310 O.3   540  INH540     -0.3950
     24  H19        6.6730   67.2880   -1.7300 H     540  INH540      0.2090
     25  C12        6.9720   70.3990   -6.2370 C.3   540  INH540      0.1980
     26  O11        7.9250   69.9350   -7.1890 O.3   540  INH540     -0.3980
     27  H22        8.1150   69.0180   -7.0260 H     540  INH540      0.2090
     28  O10        4.6510   68.1790   -5.5210 O.3   540  INH540     -0.3900
     29  H21        4.9790   68.2400   -6.4100 H     540  INH540      0.2100
     30  O9         4.6210   68.6350   -2.4090 O.3   540  INH540     -0.3870
     31  H20        3.9190   68.0530   -2.6760 H     540  INH540      0.2100
@<TRIPOS>BOND
     1    26    27    1
     2    26    25    1
     3    29    28    1
     4    25    19    1
     5    28    20    1
     6    10     9    1
     7    19    20    1
     8    19    18    1
     9     8     9    1
    10     8     4    1
    11    20    21    1
    12    18    17    1
    13     3     4    1
    14     3     2    1
    15     4     5    1
    16    21    17    1
    17    21    30    1
    18    17     1    1
    19    17    22    1
    20    12    11    1
    21    31    30    1
    22     2     1    1
    23     2     7    1
    24     5    11    1
    25     5     6    1
    26    22    23    1
    27    24    23    1
    28     7     6    1
    29     7    15    1
    30     6    13    1
    31    16    15    1
    32    13    14    1
