@<TRIPOS>MOLECULE
/tmp/ewbell/vina_2add_2add_lig/vina/vina4.pdbqt
 31 32 0 0 0
SMALL
GASTEIGER

@<TRIPOS>ATOM
      1  O1         5.9630   72.2500   -2.9640 O.3   540  INH540     -0.3180
      2  C1         6.8880   71.5000   -3.8370 C.3   540  INH540      0.2950
      3  O5         7.8450   70.6960   -3.0520 O.3   540  INH540     -0.3480
      4  C5         7.2340   69.6280   -2.3010 C.3   540  INH540      0.1790
      5  C4         6.4450   68.6870   -3.2350 C.3   540  INH540      0.1800
      6  C3         5.3750   69.4710   -3.9870 C.3   540  INH540      0.1830
      7  C2         6.0840   70.5780   -4.7810 C.3   540  INH540      0.2040
      8  C6         8.3420   68.9200   -1.5340 C.3   540  INH540      0.1980
      9  O6         8.7100   67.7320   -2.2210 O.3   540  INH540     -0.3980
     10  H11        7.9290   67.3030   -2.5500 H     540  INH540      0.2090
     11  O4         5.8140   67.6580   -2.4800 O.3   540  INH540     -0.3900
     12  H10        5.1940   67.1960   -3.0320 H     540  INH540      0.2100
     13  O3         4.6420   68.5940   -4.8570 O.3   540  INH540     -0.3900
     14  H9         4.2520   69.0980   -5.5590 H     540  INH540      0.2100
     15  O2         5.1330   71.3640   -5.5170 O.3   540  INH540     -0.3880
     16  H8         5.3220   72.2860   -5.3940 H     540  INH540      0.2100
     17  C8         5.8620   73.6950   -3.1280 C.3   540  INH540      0.2170
     18  O8         6.3230   74.3640   -1.9710 O.3   540  INH540     -0.3410
     19  C11        5.2240   74.8680   -1.2480 C.3   540  INH540      0.1800
     20  C10        3.9710   74.1330   -1.7250 C.3   540  INH540      0.1830
     21  C9         4.3330   74.0040   -3.2030 C.3   540  INH540      0.2140
     22  C7         6.7180   74.3060   -4.2600 C.3   540  INH540      0.2350
     23  O7         6.0230   74.4010   -5.4880 O.3   540  INH540     -0.3950
     24  H19        6.6460   74.4870   -6.1990 H     540  INH540      0.2090
     25  C12        5.5820   74.7050    0.2140 C.3   540  INH540      0.1980
     26  O11        5.4950   73.3190    0.5300 O.3   540  INH540     -0.3980
     27  H22        6.3690   72.9530    0.5970 H     540  INH540      0.2090
     28  O10        2.7830   74.9180   -1.5030 O.3   540  INH540     -0.3900
     29  H21        3.0200   75.7420   -1.0910 H     540  INH540      0.2100
     30  O9         3.5890   72.9400   -3.8110 O.3   540  INH540     -0.3870
     31  H20        2.9060   73.3060   -4.3620 H     540  INH540      0.2100
@<TRIPOS>BOND
     1    24    23    1
     2    14    13    1
     3    15    16    1
     4    15     7    1
     5    23    22    1
     6    13     6    1
     7     7     6    1
     8     7     2    1
     9    31    30    1
    10    22    17    1
    11     6     5    1
    12     2     3    1
    13     2     1    1
    14    30    21    1
    15     5    11    1
    16     5     4    1
    17    21    17    1
    18    21    20    1
    19    17     1    1
    20    17    18    1
    21     3     4    1
    22    12    11    1
    23    10     9    1
    24     4     8    1
    25     9     8    1
    26    18    19    1
    27    20    28    1
    28    20    19    1
    29    28    29    1
    30    19    25    1
    31    25    26    1
    32    26    27    1
