@<TRIPOS>MOLECULE
/tmp/ewbell/vina_2add_2add_lig/vina/vina2.pdbqt
 31 32 0 0 0
SMALL
GASTEIGER

@<TRIPOS>ATOM
      1  O1         6.8290   72.0850   -4.2200 O.3   540  INH540     -0.3180
      2  C1         7.3570   72.0920   -2.8410 C.3   540  INH540      0.2950
      3  O5         8.4290   71.0940   -2.6630 O.3   540  INH540     -0.3480
      4  C5         9.6210   71.3740   -3.4250 C.3   540  INH540      0.1790
      5  C4        10.1790   72.7680   -3.0710 C.3   540  INH540      0.1800
      6  C3         9.1260   73.8380   -3.3440 C.3   540  INH540      0.1830
      7  C2         7.8920   73.5000   -2.4930 C.3   540  INH540      0.2040
      8  C6        10.6090   70.2470   -3.1540 C.3   540  INH540      0.1980
      9  O6        10.0280   69.0060   -3.5300 O.3   540  INH540     -0.3980
     10  H11       10.2380   68.3480   -2.8780 H     540  INH540      0.2090
     11  O4        11.3320   73.0510   -3.8570 O.3   540  INH540     -0.3900
     12  H10       11.2270   72.6710   -4.7210 H     540  INH540      0.2100
     13  O3         9.6470   75.1350   -3.0130 O.3   540  INH540     -0.3900
     14  H9        10.4510   75.0370   -2.5200 H     540  INH540      0.2100
     15  O2         6.8520   74.4690   -2.7000 O.3   540  INH540     -0.3880
     16  H8         6.3430   74.5600   -1.9040 H     540  INH540      0.2100
     17  C8         5.5750   71.3940   -4.4860 C.3   540  INH540      0.2170
     18  O8         5.2250   70.5530   -3.4050 O.3   540  INH540     -0.3410
     19  C11        5.4660   69.2100   -3.7540 C.3   540  INH540      0.1800
     20  C10        6.4110   69.1990   -4.9570 C.3   540  INH540      0.1830
     21  C9         5.8700   70.4310   -5.6800 C.3   540  INH540      0.2140
     22  C7         4.3310   72.2950   -4.6550 C.3   540  INH540      0.2350
     23  O7         3.9990   73.0050   -3.4770 O.3   540  INH540     -0.3950
     24  H19        4.0470   72.4200   -2.7300 H     540  INH540      0.2090
     25  C12        5.9740   68.5410   -2.4950 C.3   540  INH540      0.1980
     26  O11        7.3630   68.2800   -2.6720 O.3   540  INH540     -0.3980
     27  H22        7.8710   68.9300   -2.2000 H     540  INH540      0.2090
     28  O10        6.2710   67.9880   -5.7250 O.3   540  INH540     -0.3900
     29  H21        6.5940   67.2520   -5.2180 H     540  INH540      0.2100
     30  O9         6.8560   70.9580   -6.5780 O.3   540  INH540     -0.3870
     31  H20        6.5040   71.7190   -7.0230 H     540  INH540      0.2100
@<TRIPOS>BOND
     1    31    30    1
     2    30    21    1
     3    28    29    1
     4    28    20    1
     5    21    20    1
     6    21    17    1
     7    20    19    1
     8    12    11    1
     9    22    17    1
    10    22    23    1
    11    17     1    1
    12    17    18    1
    13     1     2    1
    14    11     5    1
    15    19    18    1
    16    19    25    1
    17     9     8    1
    18     9    10    1
    19    23    24    1
    20     4     8    1
    21     4     5    1
    22     4     3    1
    23     6     5    1
    24     6    13    1
    25     6     7    1
    26    13    14    1
    27     2     3    1
    28     2     7    1
    29    15     7    1
    30    15    16    1
    31    26    25    1
    32    26    27    1
