@<TRIPOS>MOLECULE
./ligand/2h15_lig.pdb
 43 45 0 0 0
SMALL
GASTEIGER

@<TRIPOS>ATOM
      1  C1        -5.9730    6.2820   13.1580 C.3   260  INH260     -0.0107
      2  C2        -4.7800    5.4260   12.7050 C.3   260  INH260      0.1686
      3  C3        -3.6980    6.2740   12.0100 C.3   260  INH260     -0.0107
      4  O1        -4.2050    4.7510   13.8330 O.3   260  INH260     -0.3139
      5  O2        -5.2540    4.4350   11.8230 O.3   260  INH260     -0.3378
      6  C4        -5.3600    3.1990   12.5460 C.3   260  INH260      0.1455
      7  C5        -5.0790    2.1240   11.4660 C.3   260  INH260      0.1214
      8  O3        -4.9300    0.7730   11.9800 O.3   260  INH260     -0.3406
      9  C6        -4.1180    0.1070   11.0170 C.3   260  INH260      0.1656
     10  C7        -4.9860   -0.6930   10.0430 C.3   260  INH260     -0.0108
     11  C8        -3.1520   -0.8040   11.7480 C.3   260  INH260     -0.0108
     12  O4        -3.3680    1.1240   10.2760 O.3   260  INH260     -0.3410
     13  C9        -3.7350    2.3980   10.8030 C.3   260  INH260      0.1140
     14  C10       -2.6520    2.8460   11.8040 C.3   260  INH260      0.0799
     15  O5        -3.0240    2.8230   13.2180 O.3   260  INH260     -0.3425
     16  C11       -4.3090    3.3770   13.6260 C.3   260  INH260      0.2162
     17  C12       -4.8130    2.9000   14.9690 C.3   260  INH260      0.0753
     18  N1        -4.5530    1.4760   15.0850 N.3   260  INH260     -0.1736
     19  S1        -5.3700    0.8250   16.3620 S.O2  260  INH260      0.1088
     20  O6        -4.7400    1.1670   17.6670 O.2   260  INH260     -0.1401
     21  O7        -6.7990    1.2430   16.4470 O.2   260  INH260     -0.1401
     22  N2        -5.1920   -0.7630   16.1050 N.3   260  INH260     -0.0942
     23  H1        -5.6220    7.0630   13.8490 H     260  INH260      0.0281
     24  H2        -6.7090    5.6440   13.6690 H     260  INH260      0.0281
     25  H3        -6.4410    6.7520   12.2810 H     260  INH260      0.0281
     26  H4        -2.8650    5.6250   11.7030 H     260  INH260      0.0281
     27  H5        -3.3280    7.0400   12.7080 H     260  INH260      0.0281
     28  H6        -4.1280    6.7630   11.1230 H     260  INH260      0.0281
     29  H7        -6.3520    3.0390   12.9950 H     260  INH260      0.0679
     30  H8        -5.8920    2.1520   10.7260 H     260  INH260      0.0652
     31  H9        -5.5500   -1.4570   10.5970 H     260  INH260      0.0281
     32  H10       -4.3440   -1.1820    9.2960 H     260  INH260      0.0281
     33  H11       -5.6880   -0.0150    9.5360 H     260  INH260      0.0281
     34  H12       -2.5170   -1.3270   11.0180 H     260  INH260      0.0281
     35  H13       -3.7170   -1.5420   12.3360 H     260  INH260      0.0281
     36  H14       -2.5210   -0.2050   12.4210 H     260  INH260      0.0281
     37  H15       -3.8390    3.1510   10.0080 H     260  INH260      0.0647
     38  H16       -2.3670    3.8780   11.5500 H     260  INH260      0.0588
     39  H17       -1.7830    2.1840   11.6760 H     260  INH260      0.0588
     40  H18       -5.8940    3.0860   15.0460 H     260  INH260      0.0496
     41  H19       -4.2900    3.4380   15.7730 H     260  INH260      0.0496
     42  H20       -3.9570    0.9580   14.4710 H     260  INH260      0.1493
     43  H21       -5.5960   -1.4210   16.7410 H     260  INH260      0.1705
@<TRIPOS>BOND
     1     1    25    1
     2     1    24    1
     3     1    23    1
     4     1     2    1
     5     2     5    1
     6     2     4    1
     7     2     3    1
     8     3    28    1
     9     3    27    1
    10     3    26    1
    11     4    16    1
    12     5     6    1
    13     6    16    1
    14     6    29    1
    15     6     7    1
    16     7    30    1
    17     7    13    1
    18     7     8    1
    19     8     9    1
    20     9    12    1
    21     9    11    1
    22     9    10    1
    23    10    33    1
    24    10    32    1
    25    10    31    1
    26    11    36    1
    27    11    35    1
    28    11    34    1
    29    12    13    1
    30    13    37    1
    31    13    14    1
    32    14    39    1
    33    14    38    1
    34    14    15    1
    35    15    16    1
    36    16    17    1
    37    17    41    1
    38    17    40    1
    39    17    18    1
    40    18    42    1
    41    18    19    1
    42    19    22    1
    43    19    21    2
    44    19    20    2
    45    22    43    1
