@<TRIPOS>MOLECULE
/tmp/ewbell/vina_2h15_2h15_lig/vina/vina3.pdbqt
 25 27 0 0 0
SMALL
GASTEIGER

@<TRIPOS>ATOM
      1  C1        -6.6500    4.5370   13.6410 C.3   260  INH260      0.0780
      2  C2        -5.1210    4.6910   13.6580 C.3   260  INH260      0.1610
      3  C3        -4.6630    5.7380   14.6910 C.3   260  INH260      0.0780
      4  O1        -4.5050    3.4290   13.9540 O.3   260  INH260     -0.3150
      5  O2        -4.6980    5.0700   12.3690 O.3   260  INH260     -0.3420
      6  C4        -4.1780    3.9090   11.7040 C.3   260  INH260      0.2210
      7  C5        -3.0850    4.4870   10.7710 C.3   260  INH260      0.1910
      8  O3        -2.2560    3.4880   10.1170 O.3   260  INH260     -0.3450
      9  C6        -1.0290    4.1590    9.8440 C.3   260  INH260      0.1580
     10  C7        -1.0050    4.6720    8.4030 C.3   260  INH260      0.0780
     11  C8         0.1130    3.1930   10.0900 C.3   260  INH260      0.0780
     12  O4        -0.9180    5.2930   10.7650 O.3   260  INH260     -0.3460
     13  C9        -2.0840    5.2940   11.5880 C.3   260  INH260      0.1800
     14  C10       -1.7350    4.6310   12.9350 C.3   260  INH260      0.2060
     15  O5        -2.3000    3.3040   13.1720 O.3   260  INH260     -0.3490
     16  C11       -3.7060    3.0640   12.8720 C.3   260  INH260      0.2130
     17  C12       -4.0820    1.6110   12.6890 C.3   260  INH260      0.2040
     18  N1        -4.5210    1.4130   11.3190 N.3   260  INH260     -0.3020
     19  H20       -5.1390    2.0270   10.8280 H     260  INH260      0.1730
     20  S1        -3.8680    0.0400   10.6780 S.O2  260  INH260      0.2940
     21  O7        -4.0930   -1.1820   11.5030 O.2   260  INH260     -0.1890
     22  O6        -2.3980    0.1580   10.4710 O.2   260  INH260     -0.1890
     23  N2        -4.5880   -0.0350    9.2300 N.3   260  INH260     -0.2120
     24  H21       -4.3710    0.6430    8.5280 H     260  INH260      0.1370
     25  H         -5.5920    0.0240    9.3980 H     260  INH260      0.1370
@<TRIPOS>BOND
     1    10     9    1
     2    24    23    1
     3    23    25    1
     4    23    20    1
     5     9    11    1
     6     9     8    1
     7     9    12    1
     8     8     7    1
     9    22    20    2
    10    20    18    1
    11    20    21    2
    12    12    13    1
    13     7    13    1
    14     7     6    1
    15    19    18    1
    16    18    17    1
    17    13    14    1
    18     6     5    1
    19     6    16    1
    20     5     2    1
    21    17    16    1
    22    16    15    1
    23    16     4    1
    24    14    15    1
    25     1     2    1
    26     2     4    1
    27     2     3    1
