@<TRIPOS>MOLECULE
/tmp/ewbell/vina_2h15_2h15_lig/vina/vina1.pdbqt
 25 27 0 0 0
SMALL
GASTEIGER

@<TRIPOS>ATOM
      1  C1        -6.6880    6.1720   13.4230 C.3   260  INH260      0.0780
      2  C2        -5.4150    5.5690   12.8100 C.3   260  INH260      0.1610
      3  C3        -4.6670    6.5860   11.9260 C.3   260  INH260      0.0780
      4  O1        -4.5410    5.1090   13.8500 O.3   260  INH260     -0.3150
      5  O2        -5.7800    4.4450   12.0440 O.3   260  INH260     -0.3420
      6  C4        -5.4960    3.2640   12.8090 C.3   260  INH260      0.2210
      7  C5        -5.1450    2.2090   11.7300 C.3   260  INH260      0.1910
      8  O3        -4.6210    0.9580   12.2520 O.3   260  INH260     -0.3450
      9  C6        -3.8330    0.4250   11.1910 C.3   260  INH260      0.1580
     10  C7        -4.6340   -0.6050   10.3920 C.3   260  INH260      0.0780
     11  C8        -2.5890   -0.2050   11.7840 C.3   260  INH260      0.0780
     12  O4        -3.4500    1.5320   10.3110 O.3   260  INH260     -0.3460
     13  C9        -4.0120    2.7260   10.8530 C.3   260  INH260      0.1800
     14  C10       -2.9200    3.4620   11.6550 C.3   260  INH260      0.2060
     15  O5        -3.0620    3.4490   13.1100 O.3   260  INH260     -0.3490
     16  C11       -4.3630    3.7350   13.7020 C.3   260  INH260      0.2130
     17  C12       -4.5400    3.2460   15.1210 C.3   260  INH260      0.2040
     18  N1        -5.2200    1.9640   15.0910 N.3   260  INH260     -0.3020
     19  H20       -6.0400    1.7710   14.5530 H     260  INH260      0.1730
     20  S1        -4.4640    0.8660   16.0640 S.O2  260  INH260      0.2940
     21  O7        -5.2530    0.4760   17.2680 O.2   260  INH260     -0.1890
     22  O6        -3.1460    1.3580   16.5510 O.2   260  INH260     -0.1890
     23  N2        -4.2100   -0.3690   15.0500 N.3   260  INH260     -0.2120
     24  H21       -4.8590   -0.5510   14.3100 H     260  INH260      0.1370
     25  H         -4.1700   -1.2140   15.6190 H     260  INH260      0.1370
@<TRIPOS>BOND
     1    12    13    1
     2    12     9    1
     3    10     9    1
     4    13    14    1
     5    13     7    1
     6     9    11    1
     7     9     8    1
     8    14    15    1
     9     7     8    1
    10     7     6    1
    11     3     2    1
    12     5     6    1
    13     5     2    1
    14     6    16    1
    15     2     1    1
    16     2     4    1
    17    15    16    1
    18    16     4    1
    19    16    17    1
    20    24    23    1
    21    19    18    1
    22    23    25    1
    23    23    20    1
    24    18    17    1
    25    18    20    1
    26    20    22    2
    27    20    21    2
