@<TRIPOS>MOLECULE
/tmp/ewbell/vina_2h15_2h15_lig/vina/vina2.pdbqt
 25 27 0 0 0
SMALL
GASTEIGER

@<TRIPOS>ATOM
      1  C1         1.4160    3.6420   10.1590 C.3   260  INH260      0.0780
      2  C2        -0.0560    4.0340    9.9500 C.3   260  INH260      0.1610
      3  C3        -0.2320    4.9720    8.7410 C.3   260  INH260      0.0780
      4  O1        -0.8530    2.8570    9.7600 O.3   260  INH260     -0.3150
      5  O2        -0.5180    4.6670   11.1200 O.3   260  INH260     -0.3420
      6  C4        -1.2880    3.7180   11.8740 C.3   260  INH260      0.2210
      7  C5        -2.3420    4.5970   12.5920 C.3   260  INH260      0.1910
      8  O3        -3.3860    3.8540   13.2770 O.3   260  INH260     -0.3450
      9  C6        -4.4970    4.7450   13.3180 C.3   260  INH260      0.1580
     10  C7        -4.5590    5.4680   14.6650 C.3   260  INH260      0.0780
     11  C8        -5.7640    3.9480   13.0780 C.3   260  INH260      0.0780
     12  O4        -4.3280    5.7300   12.2460 O.3   260  INH260     -0.3460
     13  C9        -3.1120    5.4200   11.5670 C.3   260  INH260      0.1800
     14  C10       -3.4510    4.6250   10.2910 C.3   260  INH260      0.2060
     15  O5        -3.1070    3.2040   10.3000 O.3   260  INH260     -0.3490
     16  C11       -1.7960    2.7910   10.7840 C.3   260  INH260      0.2130
     17  C12       -1.6960    1.3420   11.2030 C.3   260  INH260      0.2040
     18  N1        -2.8460    1.0150   12.0270 N.3   260  INH260     -0.3020
     19  H20       -2.9850    1.3440   12.9600 H     260  INH260      0.1730
     20  S1        -3.8930    0.0260   11.2210 S.O2  260  INH260      0.2940
     21  O7        -4.2090   -1.2410   11.9420 O.2   260  INH260     -0.1890
     22  O6        -3.3830   -0.3570    9.8760 O.2   260  INH260     -0.1890
     23  N2        -5.1850    0.9820   11.0300 N.3   260  INH260     -0.2120
     24  H21       -5.3540    1.7290   11.6720 H     260  INH260      0.1370
     25  H         -6.0050    0.3770   11.0590 H     260  INH260      0.1370
@<TRIPOS>BOND
     1     3     2    1
     2     4     2    1
     3     4    16    1
     4    22    20    2
     5     2     1    1
     6     2     5    1
     7    14    15    1
     8    14    13    1
     9    15    16    1
    10    16    17    1
    11    16     6    1
    12    23    25    1
    13    23    20    1
    14    23    24    1
    15     5     6    1
    16    17    18    1
    17    20    21    2
    18    20    18    1
    19    13    12    1
    20    13     7    1
    21     6     7    1
    22    18    19    1
    23    12     9    1
    24     7     8    1
    25    11     9    1
    26     8     9    1
    27     9    10    1
