@<TRIPOS>MOLECULE
/tmp/ewbell/vina_2h15_2h15_lig/vina/vina5.pdbqt
 25 27 0 0 0
SMALL
GASTEIGER

@<TRIPOS>ATOM
      1  C1        -3.8010   -0.3940   10.1090 C.3   260  INH260      0.0780
      2  C2        -3.9150    0.2240   11.5110 C.3   260  INH260      0.1610
      3  C3        -4.1610   -0.8470   12.5910 C.3   260  INH260      0.0780
      4  O1        -2.7180    0.9510   11.8250 O.3   260  INH260     -0.3150
      5  O2        -4.9760    1.1510   11.5030 O.3   260  INH260     -0.3420
      6  C4        -4.4230    2.4710   11.3970 C.3   260  INH260      0.2210
      7  C5        -5.4370    3.3510   12.1710 C.3   260  INH260      0.1910
      8  O3        -5.0080    4.7230   12.3860 O.3   260  INH260     -0.3450
      9  C6        -5.7110    5.1420   13.5530 C.3   260  INH260      0.1580
     10  C7        -6.9700    5.9240   13.1700 C.3   260  INH260      0.0780
     11  C8        -4.7830    5.9960   14.3940 C.3   260  INH260      0.0780
     12  O4        -6.0930    3.9450   14.3060 O.3   260  INH260     -0.3460
     13  C9        -5.6130    2.8110   13.5840 C.3   260  INH260      0.1800
     14  C10       -4.2880    2.3490   14.2210 C.3   260  INH260      0.2060
     15  O5        -3.0720    2.6030   13.4480 O.3   260  INH260     -0.3490
     16  C11       -3.0540    2.2890   12.0250 C.3   260  INH260      0.2130
     17  C12       -1.9820    2.9980   11.2280 C.3   260  INH260      0.2040
     18  N1        -0.8710    3.3030   12.1110 N.3   260  INH260     -0.3020
     19  H20       -0.1970    2.6350   12.4240 H     260  INH260      0.1730
     20  S1        -0.8660    4.8990   12.5300 S.O2  260  INH260      0.2940
     21  O7        -1.8830    5.7200   11.8110 O.2   260  INH260     -0.1890
     22  O6         0.4560    5.5400   12.2900 O.2   260  INH260     -0.1890
     23  N2        -1.1230    4.8320   14.1260 N.3   260  INH260     -0.2120
     24  H21       -0.4810    4.3430   14.7170 H     260  INH260      0.1370
     25  H         -2.0360    4.3950   14.2590 H     260  INH260      0.1370
@<TRIPOS>BOND
     1     1     2    1
     2    17    16    1
     3    17    18    1
     4     6     5    1
     5     6    16    1
     6     6     7    1
     7     5     2    1
     8     2     4    1
     9     2     3    1
    10    21    20    2
    11     4    16    1
    12    16    15    1
    13    18    19    1
    14    18    20    1
    15     7     8    1
    16     7    13    1
    17    22    20    2
    18     8     9    1
    19    20    23    1
    20    10     9    1
    21    15    14    1
    22     9    12    1
    23     9    11    1
    24    13    14    1
    25    13    12    1
    26    23    25    1
    27    23    24    1
