@<TRIPOS>MOLECULE
/tmp/ewbell/vina_2h15_2h15_lig/vina/vina4.pdbqt
 25 27 0 0 0
SMALL
GASTEIGER

@<TRIPOS>ATOM
      1  C1        -3.0460   -1.8780   10.7820 C.3   260  INH260      0.0780
      2  C2        -3.7090   -0.5030   10.6070 C.3   260  INH260      0.1610
      3  C3        -4.5410   -0.4290    9.3130 C.3   260  INH260      0.0780
      4  O1        -4.5520   -0.2180   11.7330 O.3   260  INH260     -0.3150
      5  O2        -2.6980    0.4780   10.5850 O.3   260  INH260     -0.3420
      6  C4        -2.6480    1.1050   11.8750 C.3   260  INH260      0.2210
      7  C5        -2.1940    2.5520   11.5550 C.3   260  INH260      0.1910
      8  O3        -2.2520    3.4680   12.6820 O.3   260  INH260     -0.3450
      9  C6        -2.4020    4.7570   12.0920 C.3   260  INH260      0.1580
     10  C7        -1.0480    5.4620   11.9890 C.3   260  INH260      0.0780
     11  C8        -3.3650    5.5650   12.9390 C.3   260  INH260      0.0780
     12  O4        -2.9610    4.5780   10.7500 O.3   260  INH260     -0.3460
     13  C9        -3.1440    3.1790   10.5430 C.3   260  INH260      0.1800
     14  C10       -4.6220    2.8320   10.8120 C.3   260  INH260      0.2060
     15  O5        -4.9010    2.0790   12.0340 O.3   260  INH260     -0.3490
     16  C11       -4.0720    0.9260   12.3660 C.3   260  INH260      0.2130
     17  C12       -4.1060    0.5130   13.8190 C.3   260  INH260      0.2040
     18  N1        -4.8820    1.4880   14.5640 N.3   260  INH260     -0.3020
     19  H20       -5.4040    2.2330   14.1470 H     260  INH260      0.1730
     20  S1        -4.7900    1.2090   16.1870 S.O2  260  INH260      0.2940
     21  O7        -3.4380    1.4500   16.7690 O.2   260  INH260     -0.1890
     22  O6        -5.1700   -0.1860   16.5420 O.2   260  INH260     -0.1890
     23  N2        -5.9160    2.2140   16.7700 N.3   260  INH260     -0.2120
     24  H21       -6.4560    1.9510   17.5690 H     260  INH260      0.1370
     25  H         -6.5760    2.3880   16.0120 H     260  INH260      0.1370
@<TRIPOS>BOND
     1     3     2    1
     2    13    12    1
     3    13    14    1
     4    13     7    1
     5     5     2    1
     6     5     6    1
     7     2     1    1
     8     2     4    1
     9    12     9    1
    10    14    15    1
    11     7     6    1
    12     7     8    1
    13     4    16    1
    14     6    16    1
    15    10     9    1
    16    15    16    1
    17     9     8    1
    18     9    11    1
    19    16    17    1
    20    17    18    1
    21    19    18    1
    22    18    20    1
    23    25    23    1
    24    20    22    2
    25    20    21    2
    26    20    23    1
    27    23    24    1
