@<TRIPOS>MOLECULE
./ligand/1v1j_lig.pdb
 21 21 0 0 0
SMALL
GASTEIGER

@<TRIPOS>ATOM
      1  C1        29.3690   51.4460   57.9320 C.3   1825  INH1825     0.0193
      2  F1        27.7450   50.3240   61.4390 F     1825  INH1825    -0.2076
      3  C2        28.5440   50.1920   57.8800 C.3   1825  INH1825     0.0908
      4  O1        29.2350   49.2520   57.0620 O.3   1825  INH1825    -0.3887
      5  C3        28.4350   49.6720   59.2920 C.3   1825  INH1825     0.1318
      6  O2        27.4760   48.6360   59.3540 O.3   1825  INH1825    -0.3823
      7  C4        28.1230   50.7020   60.2090 C.2   1825  INH1825     0.1308
      8  C5        28.1960   52.0540   59.9400 C.2   1825  INH1825    -0.0081
      9  C6        29.4380   53.6990   58.8660 C.2   1825  INH1825     0.3910
     10  O3        30.7350   53.7170   58.5840 O.co2 1825  INH1825    -0.2427
     11  O4        27.5280   52.9540   57.8730 O.3   1825  INH1825    -0.3734
     12  O5        28.8810   54.7930   59.2600 O.co2 1825  INH1825    -0.2427
     13  C7        28.5950   52.5100   58.6870 C.3   1825  INH1825     0.1898
     14  H1        29.5760   51.7950   56.9100 H     1825  INH1825     0.0328
     15  H2        30.3180   51.2430   58.4490 H     1825  INH1825     0.0328
     16  H3        27.5450   50.3960   57.4670 H     1825  INH1825     0.0624
     17  H4        28.7330   48.4470   57.0120 H     1825  INH1825     0.2099
     18  H5        29.4120   49.2530   59.5760 H     1825  INH1825     0.0692
     19  H6        27.4140   48.3150   60.2460 H     1825  INH1825     0.2104
     20  H7        27.9380   52.7720   60.7170 H     1825  INH1825     0.0632
     21  H8        27.0340   53.6220   58.3340 H     1825  INH1825     0.2113
@<TRIPOS>BOND
     1    14     1    1
     2    17     4    1
     3     4     3    1
     4    16     3    1
     5    11    21    1
     6    11    13    1
     7     3     1    1
     8     3     5    1
     9     1    15    1
    10     1    13    1
    11    10     9   ar
    12    13     9    1
    13    13     8    1
    14     9    12   ar
    15     5     6    1
    16     5    18    1
    17     5     7    1
    18     6    19    1
    19     8     7    2
    20     8    20    1
    21     7     2    1
