@<TRIPOS>MOLECULE
/tmp/ewbell/vina_1v1j_1v1j_lig/vina/vina2.pdbqt
 17 17 0 0 0
SMALL
GASTEIGER

@<TRIPOS>ATOM
      1  C1        29.4210   51.9150   57.7740 C.3   1825  INH1825     0.0880
      2  F1        27.3100   53.3460   60.8880 F     1825  INH1825    -0.2080
      3  C2        30.0890   53.0180   58.5440 C.3   1825  INH1825     0.1570
      4  C3        29.0110   53.7370   59.3190 C.3   1825  INH1825     0.2080
      5  C4        28.1380   52.8330   59.9660 C.2   1825  INH1825     0.1240
      6  C5        28.0630   51.4780   59.7090 C.2   1825  INH1825     0.0620
      7  C7        28.8860   50.8880   58.7550 C.3   1825  INH1825     0.1650
      8  C6        28.1130   49.8720   58.0310 C.2   1825  INH1825     0.1800
      9  O3        27.8500   48.6700   58.5290 O.2   1825  INH1825    -0.6480
     10  O5        27.6160   50.1810   56.8820 O.3   1825  INH1825    -0.7740
     11  H         26.9550   49.6410   56.4970 H     1825  INH1825     0.1670
     12  O4        29.9780   50.1770   59.3020 O.3   1825  INH1825    -0.3750
     13  H8        30.3420   49.5970   58.6420 H     1825  INH1825     0.2110
     14  O1        30.6890   53.9030   57.6020 O.3   1825  INH1825    -0.3920
     15  H4        31.6330   53.7940   57.6230 H     1825  INH1825     0.2100
     16  O2        29.5950   54.6260   60.2490 O.3   1825  INH1825    -0.3860
     17  H6        30.3200   54.1960   60.6860 H     1825  INH1825     0.2100
@<TRIPOS>BOND
     1    11    10    1
     2    10     8    1
     3    14    15    1
     4    14     3    1
     5     1     3    1
     6     1     7    1
     7     8     9    2
     8     8     7    1
     9     3     4    1
    10    13    12    1
    11     7    12    1
    12     7     6    1
    13     4     5    1
    14     4    16    1
    15     6     5    2
    16     5     2    1
    17    16    17    1
