@<TRIPOS>MOLECULE
/tmp/ewbell/vina_1v1j_1v1j_lig/vina/vina4.pdbqt
 17 17 0 0 0
SMALL
GASTEIGER

@<TRIPOS>ATOM
      1  C1        28.6600   51.5960   59.8330 C.3   1825  INH1825     0.0880
      2  F1        27.9090   50.7030   55.9820 F     1825  INH1825    -0.2080
      3  C2        28.5740   50.1290   59.5240 C.3   1825  INH1825     0.1570
      4  C3        27.8330   49.9920   58.2180 C.3   1825  INH1825     0.2080
      5  C4        28.3050   50.9060   57.2470 C.2   1825  INH1825     0.1240
      6  C5        29.1180   51.9900   57.5070 C.2   1825  INH1825     0.0620
      7  C7        29.5510   52.2620   58.8010 C.3   1825  INH1825     0.1650
      8  C6        29.5400   53.7160   59.0050 C.2   1825  INH1825     0.1800
      9  O3        30.5530   54.3790   59.5500 O.2   1825  INH1825    -0.6480
     10  O5        28.5240   54.3870   58.5820 O.3   1825  INH1825    -0.7740
     11  H         27.8240   54.5950   59.1680 H     1825  INH1825     0.1670
     12  O4        30.8900   51.8810   59.0490 O.3   1825  INH1825    -0.3750
     13  H8        31.4600   52.6330   58.9330 H     1825  INH1825     0.2110
     14  O1        27.8380   49.5070   60.5740 O.3   1825  INH1825    -0.3920
     15  H4        28.4360   49.0380   61.1450 H     1825  INH1825     0.2100
     16  O2        27.9260   48.6640   57.7450 O.3   1825  INH1825    -0.3860
     17  H6        27.9990   48.6690   56.7980 H     1825  INH1825     0.2100
@<TRIPOS>BOND
     1     2     5    1
     2    17    16    1
     3     5     6    2
     4     5     4    1
     5     6     7    1
     6    16     4    1
     7     4     3    1
     8    10     8    1
     9    10    11    1
    10     7     8    1
    11     7    12    1
    12     7     1    1
    13    13    12    1
    14     8     9    2
    15     3     1    1
    16     3    14    1
    17    14    15    1
