@<TRIPOS>MOLECULE
/tmp/ewbell/vina_1v1j_1v1j_lig/vina/vina5.pdbqt
 17 17 0 0 0
SMALL
GASTEIGER

@<TRIPOS>ATOM
      1  C1        28.3540   52.2960   59.0230 C.3   1825  INH1825     0.0880
      2  F1        27.5340   49.3450   61.6330 F     1825  INH1825    -0.2080
      3  C2        28.5340   52.6560   60.4700 C.3   1825  INH1825     0.1570
      4  C3        27.7480   51.6550   61.2790 C.3   1825  INH1825     0.2080
      5  C4        27.9660   50.3310   60.8340 C.2   1825  INH1825     0.1240
      6  C5        28.5680   49.9830   59.6420 C.2   1825  INH1825     0.0620
      7  C7        29.0260   50.9610   58.7630 C.3   1825  INH1825     0.1650
      8  C6        28.7450   50.5270   57.3890 C.2   1825  INH1825     0.1800
      9  O3        28.0310   51.2470   56.5330 O.2   1825  INH1825    -0.6480
     10  O5        29.2660   49.4220   56.9760 O.3   1825  INH1825    -0.7740
     11  H         28.7130   48.7210   56.6940 H     1825  INH1825     0.1670
     12  O4        30.4270   51.1480   58.7940 O.3   1825  INH1825    -0.3750
     13  H8        30.7890   50.9730   57.9340 H     1825  INH1825     0.2110
     14  O1        28.0060   53.9660   60.6600 O.3   1825  INH1825    -0.3920
     15  H4        27.8510   54.3700   59.8140 H     1825  INH1825     0.2100
     16  O2        28.0660   51.7840   62.6500 O.3   1825  INH1825    -0.3860
     17  H6        28.5140   51.0000   62.9460 H     1825  INH1825     0.2100
@<TRIPOS>BOND
     1     9     8    2
     2    11    10    1
     3    10     8    1
     4     8     7    1
     5    13    12    1
     6     7    12    1
     7     7     1    1
     8     7     6    1
     9     1     3    1
    10     6     5    2
    11    15    14    1
    12     3    14    1
    13     3     4    1
    14     5     4    1
    15     5     2    1
    16     4    16    1
    17    16    17    1
