@<TRIPOS>MOLECULE
/tmp/ewbell/vina_1v1j_1v1j_lig/vina/vina1.pdbqt
 17 17 0 0 0
SMALL
GASTEIGER

@<TRIPOS>ATOM
      1  C1        29.4770   51.6340   58.0020 C.3   1825  INH1825     0.0880
      2  F1        27.7870   50.3050   61.4040 F     1825  INH1825    -0.2080
      3  C2        28.6920   50.3610   57.8680 C.3   1825  INH1825     0.1570
      4  C3        28.5580   49.7730   59.2510 C.3   1825  INH1825     0.2080
      5  C4        28.1890   50.7500   60.2040 C.2   1825  INH1825     0.1240
      6  C5        28.2290   52.1150   59.9990 C.2   1825  INH1825     0.0620
      7  C7        28.6500   52.6400   58.7810 C.3   1825  INH1825     0.1650
      8  C6        29.4520   53.8430   59.0390 C.2   1825  INH1825     0.1800
      9  O3        29.0990   54.7740   59.9160 O.2   1825  INH1825    -0.6480
     10  O5        30.5800   53.9710   58.4280 O.3   1825  INH1825    -0.7740
     11  H         31.3410   54.2380   58.9030 H     1825  INH1825     0.1670
     12  O4        27.5940   53.0900   57.9560 O.3   1825  INH1825    -0.3750
     13  H8        26.8000   52.6130   58.1680 H     1825  INH1825     0.2110
     14  O1        29.4340   49.4800   57.0300 O.3   1825  INH1825    -0.3920
     15  H4        30.3130   49.3780   57.3770 H     1825  INH1825     0.2100
     16  O2        27.6290   48.7080   59.2370 O.3   1825  INH1825    -0.3860
     17  H6        27.6560   48.2540   60.0710 H     1825  INH1825     0.2100
@<TRIPOS>BOND
     1    14    15    1
     2    14     3    1
     3     3     1    1
     4     3     4    1
     5    12    13    1
     6    12     7    1
     7     1     7    1
     8    10    11    1
     9    10     8    1
    10     7     8    1
    11     7     6    1
    12     8     9    2
    13    16     4    1
    14    16    17    1
    15     4     5    1
    16     6     5    2
    17     5     2    1
