@<TRIPOS>MOLECULE
/tmp/ewbell/vina_1v1j_1v1j_lig/vina/vina3.pdbqt
 17 17 0 0 0
SMALL
GASTEIGER

@<TRIPOS>ATOM
      1  C1        29.0550   50.9990   58.5730 C.3   1825  INH1825     0.0880
      2  F1        27.8260   51.6040   62.3570 F     1825  INH1825    -0.2080
      3  C2        27.9740   50.0710   59.0480 C.3   1825  INH1825     0.1570
      4  C3        27.9870   50.1070   60.5560 C.3   1825  INH1825     0.2080
      5  C4        28.0700   51.4290   61.0500 C.2   1825  INH1825     0.1240
      6  C5        28.3970   52.5390   60.2970 C.2   1825  INH1825     0.0620
      7  C7        28.6740   52.4210   58.9390 C.3   1825  INH1825     0.1650
      8  C6        29.7790   53.3290   58.6040 C.2   1825  INH1825     0.1800
      9  O3        30.1700   54.3180   59.3980 O.2   1825  INH1825    -0.6480
     10  O5        30.4380   53.1190   57.5160 O.3   1825  INH1825    -0.7740
     11  H         31.3170   53.4320   57.4330 H     1825  INH1825     0.1670
     12  O4        27.6140   52.8330   58.1000 O.3   1825  INH1825    -0.3750
     13  H8        27.9640   53.3150   57.3590 H     1825  INH1825     0.2110
     14  O1        28.2920   48.7610   58.5850 O.3   1825  INH1825    -0.3920
     15  H4        27.5290   48.3790   58.1680 H     1825  INH1825     0.2100
     16  O2        26.8450   49.4500   61.0660 O.3   1825  INH1825    -0.3860
     17  H6        27.0400   48.5290   61.1940 H     1825  INH1825     0.2100
@<TRIPOS>BOND
     1    13    12    1
     2    11    10    1
     3    10     8    1
     4    12     7    1
     5    15    14    1
     6     1     7    1
     7     1     3    1
     8    14     3    1
     9     8     7    1
    10     8     9    2
    11     7     6    1
    12     3     4    1
    13     6     5    2
    14     4     5    1
    15     4    16    1
    16     5     2    1
    17    16    17    1
