@<TRIPOS>MOLECULE
./ligand/1usk_lig.pdb
 22 21 0 0 0
SMALL
GASTEIGER

@<TRIPOS>ATOM
      1  N1        32.7000   -1.4910   39.7910 N.4   348  INH348      0.2289
      2  C1        33.5930   -1.5670   38.6390 C.3   348  INH348      0.0788
      3  C2        33.0740   -2.5760   37.6260 C.2   348  INH348      0.4026
      4  O1        32.0400   -3.2200   37.8510 O.co2 348  INH348     -0.2400
      5  C3        35.0040   -1.9670   39.0680 C.3   348  INH348      0.0032
      6  C4        35.6950   -1.0680   40.0870 C.3   348  INH348     -0.0411
      7  C5        37.0080   -1.7090   40.5270 C.3   348  INH348     -0.0625
      8  C6        35.9190    0.3250   39.5230 C.3   348  INH348     -0.0625
      9  O2        33.6950   -2.7370   36.5760 O.co2 348  INH348     -0.2400
     10  H1        33.0590   -0.8190   40.4510 H     348  INH348      0.2002
     11  H2        32.6420   -2.3960   40.2310 H     348  INH348      0.2002
     12  H3        31.7820   -1.2060   39.4870 H     348  INH348      0.2002
     13  H4        33.6350   -0.5760   38.1640 H     348  INH348      0.0970
     14  H5        35.6320   -1.9900   38.1650 H     348  INH348      0.0328
     15  H6        34.9460   -2.9770   39.5010 H     348  INH348      0.0328
     16  H7        35.0430   -0.9770   40.9680 H     348  INH348      0.0298
     17  H8        37.5050   -1.0590   41.2620 H     348  INH348      0.0232
     18  H9        37.6620   -1.8410   39.6530 H     348  INH348      0.0232
     19  H10       36.8030   -2.6890   40.9830 H     348  INH348      0.0232
     20  H11       34.9540    0.7560   39.2170 H     348  INH348      0.0232
     21  H12       36.5870    0.2650   38.6510 H     348  INH348      0.0232
     22  H13       36.3780    0.9630   40.2930 H     348  INH348      0.0232
@<TRIPOS>BOND
     1     1     2    1
     2     1    10    1
     3     1    11    1
     4     1    12    1
     5     2     3    1
     6     2     5    1
     7     2    13    1
     8     3     4   ar
     9     3     9   ar
    10     5     6    1
    11     5    15    1
    12     5    14    1
    13     6    16    1
    14     6     7    1
    15     6     8    1
    16     7    17    1
    17     7    19    1
    18     7    18    1
    19     8    22    1
    20     8    20    1
    21     8    21    1
