@<TRIPOS>MOLECULE
/tmp/ewbell/vina_1usk_1usk_lig/vina/vina3.pdbqt
 13 12 0 0 0
SMALL
GASTEIGER

@<TRIPOS>ATOM
      1  C1        39.4940   -0.0210   29.9280 C.3   348  INH348      0.2800
      2  N1        40.1050   -0.7160   28.8000 N.4   348  INH348     -0.0650
      3  H1        41.0060   -0.3090   28.6020 H     348  INH348      0.2750
      4  H2        39.5110   -0.6290   27.9900 H     348  INH348      0.2750
      5  H3        40.2210   -1.6910   29.0290 H     348  INH348      0.2750
      6  C2        40.2080    1.2960   30.1950 C.2   348  INH348      0.1710
      7  O1        40.0990    1.8610   31.2920 O.2   348  INH348     -0.6480
      8  O2        40.9010    1.7870   29.3050 O.3   348  INH348     -0.7750
      9  H         40.9420    2.7170   29.2030 H     348  INH348      0.1670
     10  C3        39.5420   -0.8820   31.1890 C.3   348  INH348      0.0470
     11  C4        39.3810   -2.3860   31.0030 C.3   348  INH348     -0.0200
     12  C5        40.6470   -3.0980   31.4730 C.3   348  INH348      0.0090
     13  C6        38.1530   -2.8990   31.7340 C.3   348  INH348      0.0090
@<TRIPOS>BOND
     1     4     2    1
     2     3     2    1
     3     2     5    1
     4     2     1    1
     5     9     8    1
     6     8     6    1
     7     1     6    1
     8     1    10    1
     9     6     7    2
    10    11    10    1
    11    11    12    1
    12    11    13    1
