@<TRIPOS>MOLECULE
/tmp/ewbell/vina_1usk_1usk_lig/vina/vina5.pdbqt
 13 12 0 0 0
SMALL
GASTEIGER

@<TRIPOS>ATOM
      1  C1        35.6680   -0.8240   40.1420 C.3   348  INH348      0.2800
      2  N1        36.2620    0.5000   40.2990 N.4   348  INH348     -0.0650
      3  H1        36.2820    0.7460   41.2760 H     348  INH348      0.2750
      4  H2        35.7110    1.1770   39.7930 H     348  INH348      0.2750
      5  H3        37.2020    0.4920   39.9350 H     348  INH348      0.2750
      6  C2        36.5750   -1.8910   40.7360 C.2   348  INH348      0.1710
      7  O1        37.6900   -1.5910   41.1850 O.2   348  INH348     -0.6480
      8  O2        36.1800   -3.0550   40.7700 O.3   348  INH348     -0.7750
      9  H         36.2870   -3.6080   40.0220 H     348  INH348      0.1670
     10  C3        35.4220   -1.1390   38.6670 C.3   348  INH348      0.0470
     11  C4        33.9900   -1.4730   38.2640 C.3   348  INH348     -0.0200
     12  C5        33.9720   -2.7810   37.4760 C.3   348  INH348      0.0090
     13  C6        33.0830   -1.5450   39.4800 C.3   348  INH348      0.0090
@<TRIPOS>BOND
     1    12    11    1
     2    11    10    1
     3    11    13    1
     4    10     1    1
     5     4     2    1
     6     5     2    1
     7     9     8    1
     8     1     2    1
     9     1     6    1
    10     2     3    1
    11     6     8    1
    12     6     7    2
