@<TRIPOS>MOLECULE
/tmp/ewbell/vina_1usk_1usk_lig/vina/vina4.pdbqt
 13 12 0 0 0
SMALL
GASTEIGER

@<TRIPOS>ATOM
      1  C1        39.4400   -2.6170   30.3920 C.3   348  INH348      0.2800
      2  N1        38.3280   -3.3850   30.9420 N.4   348  INH348     -0.0650
      3  H1        38.2910   -4.2880   30.4970 H     348  INH348      0.2750
      4  H2        37.4640   -2.8920   30.7760 H     348  INH348      0.2750
      5  H3        38.4610   -3.5050   31.9340 H     348  INH348      0.2750
      6  C2        40.7300   -3.4210   30.4560 C.2   348  INH348      0.1710
      7  O1        41.4300   -3.5700   29.4460 O.2   348  INH348     -0.6480
      8  O2        41.0690   -3.9140   31.5310 O.3   348  INH348     -0.7750
      9  H         40.5580   -4.5990   31.9140 H     348  INH348      0.1670
     10  C3        39.6270   -1.3060   31.1550 C.3   348  INH348      0.0470
     11  C4        39.4870   -0.0170   30.3530 C.3   348  INH348     -0.0200
     12  C5        40.1140    1.1380   31.1300 C.3   348  INH348      0.0090
     13  C6        40.1090   -0.1600   28.9750 C.3   348  INH348      0.0090
@<TRIPOS>BOND
     1    13    11    1
     2     7     6    2
     3    11    12    1
     4    11    10    1
     5     1     6    1
     6     1     2    1
     7     1    10    1
     8     6     8    1
     9     3     2    1
    10     4     2    1
    11     2     5    1
    12     8     9    1
