@<TRIPOS>MOLECULE
/tmp/ewbell/vina_1usk_1usk_lig/vina/vina2.pdbqt
 13 12 0 0 0
SMALL
GASTEIGER

@<TRIPOS>ATOM
      1  C1        41.6700    6.0650   45.4470 C.3   348  INH348      0.2800
      2  N1        40.5430    5.2340   45.0350 N.4   348  INH348     -0.0650
      3  H1        40.4470    4.4580   45.6710 H     348  INH348      0.2750
      4  H2        40.7050    4.8870   44.1030 H     348  INH348      0.2750
      5  H3        39.6980    5.7840   45.0480 H     348  INH348      0.2750
      6  C2        42.9670    5.2720   45.3960 C.2   348  INH348      0.1710
      7  O1        43.4230    4.8790   44.3140 O.2   348  INH348     -0.6480
      8  O2        43.5590    5.0340   46.4480 O.3   348  INH348     -0.7750
      9  H         43.5360    5.6550   47.1490 H     348  INH348      0.1670
     10  C3        41.4640    6.6000   46.8630 C.3   348  INH348      0.0470
     11  C4        41.4000    8.1150   47.0260 C.3   348  INH348     -0.0200
     12  C5        42.0120    8.7860   45.7990 C.3   348  INH348      0.0090
     13  C6        39.9730    8.5790   47.2590 C.3   348  INH348      0.0090
@<TRIPOS>BOND
     1     4     2    1
     2     7     6    2
     3     2     5    1
     4     2     1    1
     5     2     3    1
     6     6     1    1
     7     6     8    1
     8     1    10    1
     9    12    11    1
    10     8     9    1
    11    10    11    1
    12    11    13    1
