@<TRIPOS>MOLECULE
/tmp/ewbell/vina_1usk_1usk_lig/vina/vina1.pdbqt
 13 12 0 0 0
SMALL
GASTEIGER

@<TRIPOS>ATOM
      1  C1        42.0710    6.2790   46.1760 C.3   348  INH348      0.2800
      2  N1        43.4640    6.3880   46.5950 N.4   348  INH348     -0.0650
      3  H1        43.5140    6.3860   47.6010 H     348  INH348      0.2750
      4  H2        43.8560    7.2460   46.2400 H     348  INH348      0.2750
      5  H3        43.9860    5.6040   46.2320 H     348  INH348      0.2750
      6  C2        41.9390    5.3310   44.9940 C.2   348  INH348      0.1710
      7  O1        42.9450    4.9360   44.3890 O.2   348  INH348     -0.6480
      8  O2        40.8180    4.9580   44.6540 O.3   348  INH348     -0.7750
      9  H         40.1610    5.5890   44.4330 H     348  INH348      0.1670
     10  C3        41.5110    7.6470   45.7870 C.3   348  INH348      0.0470
     11  C4        40.3830    8.2010   46.6510 C.3   348  INH348     -0.0200
     12  C5        39.7830    7.0770   47.4900 C.3   348  INH348      0.0090
     13  C6        40.8750    9.3430   47.5240 C.3   348  INH348      0.0090
@<TRIPOS>BOND
     1     7     6    2
     2     9     8    1
     3     8     6    1
     4     6     1    1
     5    10     1    1
     6    10    11    1
     7     1     2    1
     8     5     2    1
     9     4     2    1
    10     2     3    1
    11    11    12    1
    12    11    13    1
