@<TRIPOS>MOLECULE
./ligand/2pqc_lig.pdb
 35 35 0 0 0
SMALL
GASTEIGER

@<TRIPOS>ATOM
      1  C1      -127.4420   32.1270  127.3300 C.2   448  INH448      0.0418
      2  C2      -127.1060   32.5990  125.9920 C.2   448  INH448     -0.0423
      3  C3      -128.1620   32.5360  124.8600 C.3   448  INH448      0.1173
      4  C4      -129.5960   32.5890  125.4260 C.3   448  INH448      0.1118
      5  C5      -129.7950   31.4570  126.4680 C.3   448  INH448      0.0934
      6  C6      -128.7560   31.5780  127.6310 C.3   448  INH448      0.0080
      7  C7      -126.3830   32.2050  128.4020 C.2   448  INH448      0.3825
      8  O1      -127.9790   31.3100  124.0410 O.3   448  INH448     -0.2734
      9  O2      -130.5180   32.4700  124.3250 O.3   448  INH448     -0.3863
     10  O3      -131.1530   31.4620  127.0060 O.3   448  INH448     -0.3491
     11  O4      -125.2190   32.1160  128.0350 O.co2 448  INH448     -0.2410
     12  O5      -126.7150   32.2950  129.5800 O.co2 448  INH448     -0.2410
     13  P1      -127.1220   31.2190  122.7270 P.3   448  INH448      0.5325
     14  O6      -125.6880   31.1760  123.1160 O.3   448  INH448     -0.1145
     15  O7      -127.4050   32.4290  121.9230 O.3   448  INH448     -0.1145
     16  O8      -127.4670   29.9840  121.9820 O.2   448  INH448     -0.2224
     17  C8      -131.7990   30.1520  126.6990 C.3   448  INH448      0.2195
     18  C9      -132.0900   29.8260  125.2230 C.3   448  INH448     -0.0181
     19  C10     -130.9950   28.9580  127.3080 C.2   448  INH448      0.3942
     20  O9      -130.6980   27.9760  126.5770 O.co2 448  INH448     -0.2426
     21  O10     -130.6680   29.0240  128.4990 O.co2 448  INH448     -0.2426
     22  P2      -133.3300   30.3460  127.6500 P.3   448  INH448      0.1510
     23  O11     -134.4510   30.8250  126.7170 O.3   448  INH448     -0.3553
     24  O12     -133.1450   31.3290  128.7990 O.3   448  INH448     -0.3553
     25  O13     -133.6140   28.9120  128.1030 O.2   448  INH448     -0.4573
     26  H1      -126.1130   32.9960  125.7880 H     448  INH448      0.0603
     27  H2      -128.0180   33.4110  124.2090 H     448  INH448      0.0673
     28  H3      -129.7560   33.5570  125.9240 H     448  INH448      0.0649
     29  H4      -129.6320   30.4950  125.9600 H     448  INH448      0.0627
     30  H5      -129.2060   32.2170  128.4040 H     448  INH448      0.0341
     31  H6      -128.6010   30.5670  128.0360 H     448  INH448      0.0341
     32  H7      -131.4090   32.5010  124.6530 H     448  INH448      0.2100
     33  H8      -131.1410   29.7150  124.6780 H     448  INH448      0.0267
     34  H9      -132.6770   30.6420  124.7760 H     448  INH448      0.0267
     35  H10     -132.6600   28.8880  125.1600 H     448  INH448      0.0267
@<TRIPOS>BOND
     1     1     7    1
     2     1     6    1
     3     1     2    2
     4     2    26    1
     5     2     3    1
     6     3    27    1
     7     3     8    1
     8     3     4    1
     9     4    28    1
    10     4     9    1
    11     4     5    1
    12     5    29    1
    13     5    10    1
    14     5     6    1
    15     6    31    1
    16     6    30    1
    17     7    12   ar
    18     7    11   ar
    19     8    13    1
    20     9    32    1
    21    10    17    1
    22    13    16    2
    23    13    15    1
    24    13    14    1
    25    17    22    1
    26    17    19    1
    27    17    18    1
    28    18    35    1
    29    18    34    1
    30    18    33    1
    31    19    21   ar
    32    19    20   ar
    33    22    25    2
    34    22    24    1
    35    22    23    1
