@<TRIPOS>MOLECULE
/tmp/ewbell/vina_2pqc_2pqc_lig/vina/vina4.pdbqt
 32 32 0 0 0
SMALL
GASTEIGER

@<TRIPOS>ATOM
      1  C1      -126.7720   32.3970  126.6900 C.2   448  INH448      0.0170
      2  C2      -126.5730   32.3440  125.2460 C.3   448  INH448      0.0220
      3  C3      -127.7960   32.2850  124.2970 C.3   448  INH448      0.1880
      4  C4      -129.0400   32.9280  124.9440 C.3   448  INH448      0.1800
      5  C5      -129.3340   32.2550  126.3100 C.3   448  INH448      0.1600
      6  C6      -128.1060   32.3810  127.2710 C.2   448  INH448      0.0800
      7  O3      -130.5230   32.8230  126.9390 O.3   448  INH448     -0.3500
      8  C8      -130.7660   32.1230  128.2340 C.3   448  INH448      0.2390
      9  C9      -129.5580   31.4790  128.9380 C.3   448  INH448      0.0710
     10  P2      -131.9540   30.8730  127.6770 P.3   448  INH448      0.2820
     11  O13     -133.1720   31.1660  128.5560 O.2   448  INH448     -0.6510
     12  O12     -132.2300   31.0000  126.1830 O.3   448  INH448     -0.3270
     13  H       -131.4230   31.2930  125.7300 H     448  INH448      0.2200
     14  O11     -131.4100   29.4730  127.9970 O.3   448  INH448     -0.3270
     15  H       -131.5020   28.9050  127.2160 H     448  INH448      0.2200
     16  C10     -131.4850   33.0520  129.2640 C.2   448  INH448      0.1880
     17  O10     -131.0650   33.0680  130.4280 O.2   448  INH448     -0.6470
     18  O9      -132.4670   33.7480  128.8890 O.3   448  INH448     -0.7740
     19  H       -133.1200   33.3740  128.3310 H     448  INH448      0.1670
     20  O2      -130.1450   32.7860  124.0300 O.3   448  INH448     -0.3900
     21  H7      -129.8270   32.4590  123.1960 H     448  INH448      0.2100
     22  O1      -128.0890   30.8810  123.9070 O.3   448  INH448     -0.2850
     23  P1      -127.5690   30.1770  122.6010 P.3   448  INH448      0.3910
     24  O8      -128.3270   28.9250  122.3660 O.2   448  INH448     -0.6320
     25  O7      -127.7420   31.1290  121.4810 O.3   448  INH448     -0.3070
     26  H       -127.6010   30.6680  120.6400 H     448  INH448      0.2220
     27  O6      -126.1310   29.8560  122.7940 O.3   448  INH448     -0.3070
     28  H       -125.6270   30.1550  122.0210 H     448  INH448      0.2220
     29  C7      -125.5520   32.4520  127.5770 C.2   448  INH448      0.1710
     30  O5      -124.4400   32.5830  127.0750 O.2   448  INH448     -0.6460
     31  O4      -125.7470   32.4190  128.7840 O.3   448  INH448     -0.7730
     32  H       -126.5380   32.7740  129.1410 H     448  INH448      0.1670
@<TRIPOS>BOND
     1    26    25    1
     2    25    23    1
     3    28    27    1
     4    24    23    2
     5    23    27    1
     6    23    22    1
     7    21    20    1
     8    22     3    1
     9    20     4    1
    10     3     4    1
    11     3     2    1
    12     4     5    1
    13     2     1    1
    14    13    12    1
    15    12    10    1
    16     5     7    1
    17     5     6    1
    18     1     6    2
    19     1    29    1
    20     7     8    1
    21    30    29    2
    22    15    14    1
    23    29    31    1
    24    10    14    1
    25    10     8    1
    26    10    11    2
    27     8     9    1
    28     8    16    1
    29    19    18    1
    30    31    32    1
    31    18    16    1
    32    16    17    2
