@<TRIPOS>MOLECULE
/tmp/ewbell/vina_2pqc_2pqc_lig/vina/vina2.pdbqt
 32 32 0 0 0
SMALL
GASTEIGER

@<TRIPOS>ATOM
      1  C1      -127.5810   32.2250  127.5050 C.2   448  INH448      0.0170
      2  C2      -127.1050   32.5480  126.1650 C.3   448  INH448      0.0220
      3  C3      -128.0610   32.4270  124.9530 C.3   448  INH448      0.1880
      4  C4      -129.5330   32.6030  125.3780 C.3   448  INH448      0.1800
      5  C5      -129.8850   31.5880  126.4980 C.3   448  INH448      0.1600
      6  C6      -128.9450   31.7710  127.7340 C.2   448  INH448      0.0800
      7  O3      -131.2820   31.7100  126.9070 O.3   448  INH448     -0.3500
      8  C8      -131.8260   30.3470  127.1780 C.3   448  INH448      0.2390
      9  C9      -131.0970   29.4790  128.2180 C.3   448  INH448      0.0710
     10  P2      -131.6970   29.6410  125.5140 P.3   448  INH448      0.2820
     11  O13     -132.3130   28.2520  125.7020 O.2   448  INH448     -0.6510
     12  O12     -132.4260   30.5020  124.4900 O.3   448  INH448     -0.3270
     13  H       -132.3530   31.4370  124.7430 H     448  INH448      0.2200
     14  O11     -130.2170   29.5030  125.1330 O.3   448  INH448     -0.3270
     15  H       -129.9950   30.1630  124.4580 H     448  INH448      0.2200
     16  C10     -133.3390   30.4000  127.5680 C.2   448  INH448      0.1880
     17  O10     -133.6290   30.4360  128.7700 O.2   448  INH448     -0.6470
     18  O9      -134.2120   30.3990  126.6600 O.3   448  INH448     -0.7740
     19  H       -134.1230   29.8250  125.9250 H     448  INH448      0.1670
     20  O2      -130.3620   32.4220  124.2130 O.3   448  INH448     -0.3900
     21  H7      -130.0950   33.0330  123.5360 H     448  INH448      0.2100
     22  O1      -127.8780   31.1200  124.2700 O.3   448  INH448     -0.2850
     23  P1      -127.1040   30.9040  122.9190 P.3   448  INH448      0.3910
     24  O8      -127.0660   29.4610  122.5820 O.2   448  INH448     -0.6320
     25  O7      -127.8040   31.6830  121.8730 O.3   448  INH448     -0.3070
     26  H       -128.5510   31.1670  121.5320 H     448  INH448      0.2220
     27  O6      -125.7170   31.4060  123.1000 O.3   448  INH448     -0.3070
     28  H       -125.3980   31.1640  123.9840 H     448  INH448      0.2220
     29  C7      -126.6160   32.3560  128.6570 C.2   448  INH448      0.1710
     30  O5      -125.5830   33.0030  128.5150 O.2   448  INH448     -0.6460
     31  O4      -126.9490   31.8430  129.7170 O.3   448  INH448     -0.7730
     32  H       -127.7940   32.0260  130.0810 H     448  INH448      0.1670
@<TRIPOS>BOND
     1    26    25    1
     2    25    23    1
     3    24    23    2
     4    23    27    1
     5    23    22    1
     6    27    28    1
     7    21    20    1
     8    20     4    1
     9    22     3    1
    10    15    14    1
    11    12    13    1
    12    12    10    1
    13     3     4    1
    14     3     2    1
    15    14    10    1
    16     4     5    1
    17    10    11    2
    18    10     8    1
    19    19    18    1
    20     2     1    1
    21     5     7    1
    22     5     6    1
    23    18    16    1
    24     7     8    1
    25     8    16    1
    26     8     9    1
    27     1     6    2
    28     1    29    1
    29    16    17    2
    30    30    29    2
    31    29    31    1
    32    31    32    1
