@<TRIPOS>MOLECULE
/tmp/ewbell/vina_2pqc_2pqc_lig/vina/vina3.pdbqt
 32 32 0 0 0
SMALL
GASTEIGER

@<TRIPOS>ATOM
      1  C1      -130.6010   30.0730  125.8080 C.2   448  INH448      0.0170
      2  C2      -130.2960   30.6170  127.1260 C.2   448  INH448      0.0220
      3  C3      -129.3100   31.8040  127.2650 C.3   448  INH448      0.1880
      4  C4      -129.2770   32.6610  125.9830 C.3   448  INH448      0.1800
      5  C5      -128.9410   31.7680  124.7590 C.3   448  INH448      0.1600
      6  C6      -129.9850   30.6130  124.6050 C.3   448  INH448      0.0800
      7  O3      -128.8760   32.5540  123.5290 O.3   448  INH448     -0.3500
      8  C8      -127.4590   32.6040  123.0630 C.3   448  INH448      0.2390
      9  C9      -126.3600   32.2070  124.0650 C.3   448  INH448      0.0710
     10  P2      -127.3550   34.3590  122.6230 P.3   448  INH448      0.2820
     11  O13     -127.9610   35.0390  123.8530 O.2   448  INH448     -0.6510
     12  O12     -125.9160   34.7720  122.3390 O.3   448  INH448     -0.3270
     13  H       -125.5420   35.2040  123.1240 H     448  INH448      0.2200
     14  O11     -128.2360   34.6300  121.3950 O.3   448  INH448     -0.3270
     15  H       -128.5150   35.5590  121.3980 H     448  INH448      0.2200
     16  C10     -127.2520   31.7630  121.7620 C.2   448  INH448      0.1880
     17  O10     -127.1320   30.5370  121.8740 O.2   448  INH448     -0.6470
     18  O9      -127.2070   32.3490  120.6470 O.3   448  INH448     -0.7740
     19  H       -127.4100   33.2620  120.5890 H     448  INH448      0.1670
     20  O2      -128.3030   33.7060  126.1660 O.3   448  INH448     -0.3900
     21  H7      -128.7420   34.5480  126.1940 H     448  INH448      0.2100
     22  O1      -127.9450   31.3160  127.5900 O.3   448  INH448     -0.2850
     23  P1      -127.0080   31.9190  128.6980 P.3   448  INH448      0.3910
     24  O8      -125.6870   31.2460  128.6650 O.2   448  INH448     -0.6320
     25  O7      -126.8780   33.3700  128.4340 O.3   448  INH448     -0.3070
     26  H       -126.2820   33.5090  127.6820 H     448  INH448      0.2220
     27  O6      -127.6480   31.6860  130.0180 O.3   448  INH448     -0.3070
     28  H       -127.8070   30.7360  130.1370 H     448  INH448      0.2220
     29  C7      -131.5650   28.9160  125.7180 C.2   448  INH448      0.1710
     30  O5      -131.3710   27.9090  126.3920 O.2   448  INH448     -0.6460
     31  O4      -132.5450   29.0690  125.0020 O.3   448  INH448     -0.7730
     32  H       -132.4430   29.4030  124.1320 H     448  INH448      0.1670
@<TRIPOS>BOND
     1    19    18    1
     2    18    16    1
     3    14    15    1
     4    14    10    1
     5    16    17    2
     6    16     8    1
     7    12    10    1
     8    12    13    1
     9    10     8    1
    10    10    11    2
    11     8     7    1
    12     8     9    1
    13     7     5    1
    14    32    31    1
    15     6     5    1
    16     6     1    1
    17     5     4    1
    18    31    29    1
    19    29     1    1
    20    29    30    2
    21     1     2    2
    22     4    20    1
    23     4     3    1
    24    20    21    1
    25     2     3    1
    26     3    22    1
    27    22    23    1
    28    26    25    1
    29    25    23    1
    30    24    23    2
    31    23    27    1
    32    27    28    1
