@<TRIPOS>MOLECULE
/tmp/ewbell/vina_2pqc_2pqc_lig/vina/vina5.pdbqt
 32 32 0 0 0
SMALL
GASTEIGER

@<TRIPOS>ATOM
      1  C1      -129.2270   31.4080  127.6400 C.2   448  INH448      0.0170
      2  C2      -130.2330   30.3670  127.8140 C.2   448  INH448      0.0220
      3  C3      -130.9090   29.7280  126.5750 C.3   448  INH448      0.1880
      4  C4      -129.9940   29.8020  125.3350 C.3   448  INH448      0.1800
      5  C5      -129.5780   31.2740  125.0730 C.3   448  INH448      0.1600
      6  C6      -128.8450   31.8770  126.3160 C.3   448  INH448      0.0800
      7  O3      -128.7310   31.3840  123.8890 O.3   448  INH448     -0.3500
      8  C8      -128.1840   32.7710  123.8140 C.3   448  INH448      0.2390
      9  C9      -129.1270   33.9330  124.1740 C.3   448  INH448      0.0710
     10  P2      -127.7190   32.8110  122.0620 P.3   448  INH448      0.2820
     11  O13     -127.3100   31.3590  121.8020 O.2   448  INH448     -0.6510
     12  O12     -128.8760   33.2900  121.1940 O.3   448  INH448     -0.3270
     13  H       -129.6360   32.6990  121.3150 H     448  INH448      0.2200
     14  O11     -126.5030   33.7310  121.8790 O.3   448  INH448     -0.3270
     15  H       -126.6340   34.2850  121.0940 H     448  INH448      0.2200
     16  C10     -126.8830   32.9220  124.6660 C.2   448  INH448      0.1880
     17  O10     -126.8340   33.8400  125.4960 O.2   448  INH448     -0.6470
     18  O9      -125.9280   32.1210  124.4850 O.3   448  INH448     -0.7740
     19  H       -125.9000   31.5920  123.7120 H     448  INH448      0.1670
     20  O2      -130.7080   29.2420  124.2160 O.3   448  INH448     -0.3900
     21  H7      -130.6610   28.2940  124.2530 H     448  INH448      0.2100
     22  O1      -132.2110   30.3840  126.2920 O.3   448  INH448     -0.2850
     23  P1      -133.3280   30.6790  127.3590 P.3   448  INH448      0.3910
     24  O8      -132.9870   31.9040  128.1220 O.2   448  INH448     -0.6320
     25  O7      -134.6090   30.8370  126.6340 O.3   448  INH448     -0.3070
     26  H       -135.0060   31.6910  126.8620 H     448  INH448      0.2220
     27  O6      -133.3930   29.5210  128.2870 O.3   448  INH448     -0.3070
     28  H       -132.5020   29.3160  128.6120 H     448  INH448      0.2220
     29  C7      -128.5950   32.0040  128.8740 C.2   448  INH448      0.1710
     30  O5      -127.5870   32.6960  128.7670 O.2   448  INH448     -0.6460
     31  O4      -129.1690   31.8090  129.9360 O.3   448  INH448     -0.7730
     32  H       -128.6950   31.4620  130.6680 H     448  INH448      0.1670
@<TRIPOS>BOND
     1    15    14    1
     2    12    13    1
     3    12    10    1
     4    11    10    2
     5    14    10    1
     6    10     8    1
     7    19    18    1
     8     8     7    1
     9     8     9    1
    10     8    16    1
    11     7     5    1
    12    20    21    1
    13    20     4    1
    14    18    16    1
    15    16    17    2
    16     5     4    1
    17     5     6    1
    18     4     3    1
    19    22     3    1
    20    22    23    1
    21     6     1    1
    22     3     2    1
    23    25    26    1
    24    25    23    1
    25    23    24    2
    26    23    27    1
    27     1     2    2
    28     1    29    1
    29    27    28    1
    30    30    29    2
    31    29    31    1
    32    31    32    1
