@<TRIPOS>MOLECULE
/tmp/ewbell/vina_2pqc_2pqc_lig/vina/vina1.pdbqt
 32 32 0 0 0
SMALL
GASTEIGER

@<TRIPOS>ATOM
      1  C1      -127.3140   32.2410  127.0160 C.2   448  INH448      0.0170
      2  C2      -127.0450   32.6190  125.6340 C.3   448  INH448      0.0220
      3  C3      -128.1520   32.4710  124.5600 C.3   448  INH448      0.1880
      4  C4      -129.5580   32.5580  125.1880 C.3   448  INH448      0.1800
      5  C5      -129.7000   31.5010  126.3150 C.3   448  INH448      0.1600
      6  C6      -128.6080   31.7090  127.4160 C.2   448  INH448      0.0800
      7  O3      -131.0310   31.5380  126.9150 O.3   448  INH448     -0.3500
      8  C8      -131.7030   30.2260  126.6790 C.3   448  INH448      0.2390
      9  C9      -132.0190   29.8340  125.2250 C.3   448  INH448      0.0710
     10  P2      -133.2170   30.4920  127.6400 P.3   448  INH448      0.2820
     11  O13     -132.9320   31.8270  128.3320 O.2   448  INH448     -0.6510
     12  O12     -134.4450   30.5170  126.7390 O.3   448  INH448     -0.3270
     13  H       -134.8800   31.3820  126.8080 H     448  INH448      0.2200
     14  O11     -133.3540   29.3830  128.6920 O.3   448  INH448     -0.3270
     15  H       -134.0670   28.7790  128.4330 H     448  INH448      0.2200
     16  C10     -130.9110   29.0490  127.3350 C.2   448  INH448      0.1880
     17  O10     -130.5550   28.1120  126.6100 O.2   448  INH448     -0.6470
     18  O9      -130.6650   29.0810  128.5700 O.3   448  INH448     -0.7740
     19  H       -130.7840   28.3120  129.0920 H     448  INH448      0.1670
     20  O2      -130.5300   32.3570  124.1430 O.3   448  INH448     -0.3900
     21  H7      -130.8930   31.4820  124.2110 H     448  INH448      0.2100
     22  O1      -127.9980   31.1920  123.8220 O.3   448  INH448     -0.2850
     23  P1      -126.9630   30.9320  122.6670 P.3   448  INH448      0.3910
     24  O8      -127.4680   31.5060  121.3970 O.2   448  INH448     -0.6320
     25  O7      -125.6810   31.5540  123.0660 O.3   448  INH448     -0.3070
     26  H       -125.5750   32.4000  122.6050 H     448  INH448      0.2220
     27  O6      -126.8040   29.4620  122.5150 O.3   448  INH448     -0.3070
     28  H       -126.2440   29.1220  123.2310 H     448  INH448      0.2220
     29  C7      -126.2070   32.4000  128.0290 C.2   448  INH448      0.1710
     30  O5      -126.4410   32.2160  129.2190 O.2   448  INH448     -0.6460
     31  O4      -125.0930   32.6540  127.5930 O.3   448  INH448     -0.7730
     32  H       -124.6550   33.4400  127.8560 H     448  INH448      0.1670
@<TRIPOS>BOND
     1    24    23    2
     2    27    23    1
     3    27    28    1
     4    26    25    1
     5    23    25    1
     6    23    22    1
     7    22     3    1
     8    20    21    1
     9    20     4    1
    10     3     4    1
    11     3     2    1
    12     4     5    1
    13     9     8    1
    14     2     1    1
    15     5     7    1
    16     5     6    1
    17    17    16    2
    18     8     7    1
    19     8    16    1
    20     8    10    1
    21    12    13    1
    22    12    10    1
    23     1     6    2
    24     1    29    1
    25    16    18    1
    26    31    32    1
    27    31    29    1
    28    10    11    2
    29    10    14    1
    30    29    30    2
    31    15    14    1
    32    18    19    1
