@<TRIPOS>MOLECULE
./ligand/2fqx_lig.pdb
 33 35 0 0 0
SMALL
GASTEIGER

@<TRIPOS>ATOM
      1  O1        31.4040   62.4540   13.3650 O.3   319  INH319     -0.3924
      2  C1        31.1240   61.0890   13.6970 C.3   319  INH319      0.0730
      3  C2        32.1240   60.1230   13.0500 C.3   319  INH319      0.1126
      4  O2        32.0410   60.2400   11.6200 O.3   319  INH319     -0.3457
      5  C3        33.5730   60.4900   13.3730 C.3   319  INH319      0.1135
      6  C4        34.2890   59.7510   12.2450 C.3   319  INH319      0.1285
      7  O3        34.2830   58.3390   12.4800 O.3   319  INH319     -0.3847
      8  C5        33.3580   60.0540   11.0680 C.3   319  INH319      0.1667
      9  N1        33.7210   61.3090   10.3680 N.ar  319  INH319     -0.2854
     10  N2        33.8610   63.3990    9.7900 N.ar  319  INH319     -0.2286
     11  C6        34.5170   62.6940    8.8710 C.ar  319  INH319      0.1721
     12  C7        35.1930   63.0090    7.6970 C.ar  319  INH319      0.2803
     13  N3        35.7360   61.9720    6.9340 N.ar  319  INH319     -0.2934
     14  C8        35.6030   60.6420    7.3580 C.ar  319  INH319      0.1950
     15  N4        36.1220   59.6570    6.6330 N.pl3 319  INH319     -0.3289
     16  N5        34.9520   60.3760    8.4970 N.ar  319  INH319     -0.1963
     17  C9        34.4200   61.3580    9.2410 C.ar  319  INH319      0.1712
     18  C10       33.3780   62.5540   10.6980 C.ar  319  INH319      0.1005
     19  O4        35.3470   64.1750    7.3280 O.2   319  INH319     -0.2654
     20  H1        30.7650   63.0190   13.7830 H     319  INH319      0.2095
     21  H2        30.1120   60.8390   13.3470 H     319  INH319      0.0584
     22  H3        31.1740   60.9720   14.7900 H     319  INH319      0.0584
     23  H4        31.9050   59.0960   13.3760 H     319  INH319      0.0647
     24  H5        33.7530   61.5750   13.3620 H     319  INH319      0.0647
     25  H6        35.3140   60.1180   12.0860 H     319  INH319      0.0665
     26  H7        34.7320   57.8980   11.7690 H     319  INH319      0.2101
     27  H8        33.3710   59.2150   10.3570 H     319  INH319      0.0866
     28  H9        32.7940   62.8360   11.5730 H     319  INH319      0.1030
     29  H10       36.2200   62.1790    6.0840 H     319  INH319      0.1716
     30  H11       36.0240   58.6810    6.9450 H     319  INH319      0.1451
     31  H12       36.6230   59.8700    5.7580 H     319  INH319      0.1451
     32  O5        33.9590   59.9160   14.6270 O.3   319  INH319     -0.3864
     33  H13       34.8600   60.1500   14.8180 H     319  INH319      0.2100
@<TRIPOS>BOND
     1     1     2    1
     2     1    20    1
     3     2     3    1
     4     2    22    1
     5     2    21    1
     6     3     5    1
     7     3     4    1
     8     3    23    1
     9     4     8    1
    10     5    24    1
    11     5     6    1
    12     5    32    1
    13     6     7    1
    14     6    25    1
    15     6     8    1
    16     7    26    1
    17     8     9    1
    18     8    27    1
    19     9    18   ar
    20     9    17   ar
    21    10    11   ar
    22    10    18   ar
    23    11    17   ar
    24    11    12   ar
    25    12    13   ar
    26    12    19    2
    27    13    14   ar
    28    13    29    1
    29    14    16   ar
    30    14    15    1
    31    15    30    1
    32    15    31    1
    33    16    17   ar
    34    18    28    1
    35    32    33    1
