@<TRIPOS>MOLECULE
/tmp/ewbell/vina_2fqx_2fqx_lig/vina/vina5.pdbqt
 28 30 0 0 0
SMALL
GASTEIGER

@<TRIPOS>ATOM
      1  N1        34.8760   60.0970    9.8410 N.pl3 319  INH319     -0.2970
      2  N2        33.9900   62.0690    9.6220 N.pl3 319  INH319     -0.3450
      3  H2        33.7170   62.9660    9.2210 H     319  INH319      0.1670
      4  C6        33.6790   61.6330   10.8420 C.2   319  INH319      0.1470
      5  C7        32.9780   62.1620   11.9200 C.2   319  INH319      0.2900
      6  N3        32.8900   61.4150   13.0970 N.am  319  INH319     -0.1540
      7  C8        33.4920   60.1520   13.1770 C.3   319  INH319      0.6800
      8  N4        33.4050   59.4410   14.2960 N.3   319  INH319     -0.2340
      9  N5        34.1520   59.6690   12.1160 N.pl3 319  INH319     -0.1740
     10  H5        34.5870   58.7490   12.1740 H     319  INH319      0.1860
     11  C9        34.2520   60.3730   10.9780 C.2   319  INH319      0.1590
     12  C10       34.7180   61.1330    9.0180 C.3   319  INH319      0.1880
     13  O4        32.4150   63.2570   11.8550 O.2   319  INH319     -0.2650
     14  H10       32.3960   61.7830   13.8850 H     319  INH319      0.1870
     15  H11       33.8480   58.5140   14.3530 H     319  INH319      0.1740
     16  H12       32.8940   59.8180   15.1070 H     319  INH319      0.1740
     17  C5        35.6540   58.8580    9.5980 C.3   319  INH319      0.2620
     18  O2        36.3100   59.0100    8.3250 O.3   319  INH319     -0.3530
     19  C2        35.8350   57.9820    7.4400 C.3   319  INH319      0.1790
     20  C3        34.4540   57.6220    7.9910 C.3   319  INH319      0.1820
     21  C4        34.7610   57.6200    9.4870 C.3   319  INH319      0.1980
     22  C1        35.7620   58.5360    6.0120 C.3   319  INH319      0.1980
     23  O1        35.4640   59.9380    5.9950 O.3   319  INH319     -0.3980
     24  H1        35.0370   60.1590    5.1760 H     319  INH319      0.2090
     25  O5        34.0930   56.2970    7.5860 O.3   319  INH319     -0.3900
     26  H13       34.2550   55.6920    8.3010 H     319  INH319      0.2100
     27  O3        35.5310   56.4680    9.8450 O.3   319  INH319     -0.3880
     28  H7        36.1560   56.2790    9.1560 H     319  INH319      0.2100
@<TRIPOS>BOND
     1    24    23    1
     2    23    22    1
     3    22    19    1
     4    19    20    1
     5    19    18    1
     6    25    20    1
     7    25    26    1
     8    20    21    1
     9    18    17    1
    10    12     2    1
    11    12     1    1
    12    28    27    1
    13     3     2    1
    14    21    17    1
    15    21    27    1
    16    17     1    1
    17     2     4    1
    18     1    11    1
    19     4    11    2
    20     4     5    1
    21    11     9    1
    22    13     5    2
    23     5     6   am
    24     9    10    1
    25     9     7    1
    26     6     7    1
    27     6    14    1
    28     7     8    1
    29     8    15    1
    30     8    16    1
