@<TRIPOS>MOLECULE
/tmp/ewbell/vina_2fqx_2fqx_lig/vina/vina3.pdbqt
 28 30 0 0 0
SMALL
GASTEIGER

@<TRIPOS>ATOM
      1  N1        33.6820   62.2290    0.2030 N.pl3 319  INH319     -0.2970
      2  N2        32.0060   60.8780   -0.0900 N.pl3 319  INH319     -0.3450
      3  H2        31.0970   60.4270    0.0210 H     319  INH319      0.1670
      4  C6        32.9400   60.5400   -0.9760 C.2   319  INH319      0.1470
      5  C7        33.0520   59.5550   -1.9520 C.2   319  INH319      0.2900
      6  N3        34.2370   59.4660   -2.6860 N.am  319  INH319     -0.1540
      7  C8        35.2860   60.3640   -2.4430 C.3   319  INH319      0.6800
      8  N4        36.4120   60.2800   -3.1430 N.3   319  INH319     -0.2340
      9  N5        35.1410   61.3040   -1.5010 N.pl3 319  INH319     -0.1740
     10  H5        35.9030   61.9590   -1.3260 H     319  INH319      0.1860
     11  C9        34.0120   61.4030   -0.7820 C.2   319  INH319      0.1590
     12  C10       32.4600   61.9040    0.6240 C.3   319  INH319      0.1880
     13  O4        32.1260   58.7800   -2.2020 O.2   319  INH319     -0.2650
     14  H10       34.3370   58.7600   -3.3870 H     319  INH319      0.1870
     15  H11       37.1800   60.9400   -2.9630 H     319  INH319      0.1740
     16  H12       36.5150   59.5540   -3.8670 H     319  INH319      0.1740
     17  C5        34.5780   63.2780    0.7450 C.3   319  INH319      0.2620
     18  O2        34.3240   63.3650    2.1600 O.3   319  INH319     -0.3530
     19  C2        33.8440   64.6860    2.4580 C.3   319  INH319      0.1790
     20  C3        33.2280   65.1670    1.1440 C.3   319  INH319      0.1820
     21  C4        34.2800   64.6610    0.1590 C.3   319  INH319      0.1980
     22  C1        32.8100   64.6070    3.5880 C.3   319  INH319      0.1980
     23  O1        31.4840   64.8840    3.1220 O.3   319  INH319     -0.3980
     24  H1        31.4820   65.7030    2.6410 H     319  INH319      0.2090
     25  O5        33.2020   66.5980    1.1060 O.3   319  INH319     -0.3900
     26  H13       33.2770   66.8920    0.2050 H     319  INH319      0.2100
     27  O3        35.4680   65.4550    0.2350 O.3   319  INH319     -0.3880
     28  H7        35.6780   65.6240    1.1460 H     319  INH319      0.2100
@<TRIPOS>BOND
     1    16     8    1
     2    14     6    1
     3     8    15    1
     4     8     7    1
     5     6     7    1
     6     6     5   am
     7     7     9    1
     8    13     5    2
     9     5     4    1
    10     9    10    1
    11     9    11    1
    12     4    11    2
    13     4     2    1
    14    11     1    1
    15     2     3    1
    16     2    12    1
    17    21    27    1
    18    21    17    1
    19    21    20    1
    20     1    12    1
    21     1    17    1
    22    26    25    1
    23    27    28    1
    24    17    18    1
    25    25    20    1
    26    20    19    1
    27    18    19    1
    28    19    22    1
    29    24    23    1
    30    23    22    1
