@<TRIPOS>MOLECULE
/tmp/ewbell/vina_2fqx_2fqx_lig/vina/vina4.pdbqt
 28 30 0 0 0
SMALL
GASTEIGER

@<TRIPOS>ATOM
      1  N1        35.5210   58.7600    7.8240 N.pl3 319  INH319     -0.2970
      2  N2        34.7000   57.7370    6.0920 N.pl3 319  INH319     -0.3450
      3  H2        34.3550   57.5600    5.1490 H     319  INH319      0.1670
      4  C6        34.7760   56.8420    7.0750 C.2   319  INH319      0.1470
      5  C7        34.4360   55.5000    7.2040 C.2   319  INH319      0.2900
      6  N3        34.6180   54.8750    8.4400 N.am  319  INH319     -0.1540
      7  C8        35.1440   55.5940    9.5220 C.3   319  INH319      0.6800
      8  N4        35.3200   54.9980   10.6970 N.3   319  INH319     -0.2340
      9  N5        35.4690   56.8830    9.3600 N.pl3 319  INH319     -0.1740
     10  H5        35.8540   57.4040   10.1470 H     319  INH319      0.1860
     11  C9        35.2970   57.5030    8.1830 C.2   319  INH319      0.1590
     12  C10       35.1530   58.9000    6.5510 C.3   319  INH319      0.1880
     13  O4        34.0040   54.8450    6.2540 O.2   319  INH319     -0.2650
     14  H10       34.3720   53.9130    8.5530 H     319  INH319      0.1870
     15  H11       35.7060   55.5280   11.4900 H     319  INH319      0.1740
     16  H12       35.0690   54.0060   10.8130 H     319  INH319      0.1740
     17  C5        36.0370   59.8060    8.7380 C.3   319  INH319      0.2620
     18  O2        35.7420   59.3800   10.0820 O.3   319  INH319     -0.3530
     19  C2        34.8700   60.3490   10.6880 C.3   319  INH319      0.1790
     20  C3        34.1600   61.0070    9.5030 C.3   319  INH319      0.1820
     21  C4        35.3360   61.1530    8.5400 C.3   319  INH319      0.1980
     22  C1        33.8900   59.6340   11.6250 C.3   319  INH319      0.1980
     23  O1        34.3860   58.3580   12.0490 O.3   319  INH319     -0.3980
     24  H1        33.6560   57.7910   12.2640 H     319  INH319      0.2090
     25  O5        33.6920   62.3100    9.8710 O.3   319  INH319     -0.3900
     26  H13       34.3420   62.7360   10.4190 H     319  INH319      0.2100
     27  O3        36.2180   62.1950    8.9710 O.3   319  INH319     -0.3880
     28  H7        36.0590   62.3850    9.8880 H     319  INH319      0.2100
@<TRIPOS>BOND
     1     3     2    1
     2     2    12    1
     3     2     4    1
     4    13     5    2
     5    12     1    1
     6     4     5    1
     7     4    11    2
     8     5     6   am
     9     1    11    1
    10     1    17    1
    11    11     9    1
    12     6    14    1
    13     6     7    1
    14    21    17    1
    15    21    27    1
    16    21    20    1
    17    17    18    1
    18    27    28    1
    19     9     7    1
    20     9    10    1
    21    20    25    1
    22    20    19    1
    23     7     8    1
    24    25    26    1
    25    18    19    1
    26    19    22    1
    27     8    16    1
    28     8    15    1
    29    22    23    1
    30    23    24    1
