@<TRIPOS>MOLECULE
/tmp/ewbell/vina_2fqx_2fqx_lig/vina/vina1.pdbqt
 28 30 0 0 0
SMALL
GASTEIGER

@<TRIPOS>ATOM
      1  N1        33.7250   61.3010   10.4250 N.pl3 319  INH319     -0.2970
      2  N2        33.8300   63.3990    9.8700 N.pl3 319  INH319     -0.3450
      3  H2        33.6860   64.4090    9.8780 H     319  INH319      0.1670
      4  C6        34.5550   62.7220    8.9810 C.2   319  INH319      0.1470
      5  C7        35.2820   63.0670    7.8470 C.2   319  INH319      0.2900
      6  N3        35.8950   62.0530    7.1070 N.am  319  INH319     -0.1540
      7  C8        35.7820   60.7160    7.5140 C.3   319  INH319      0.6800
      8  N4        36.3690   59.7530    6.8110 N.3   319  INH319     -0.2340
      9  N5        35.0810   60.4220    8.6160 N.pl3 319  INH319     -0.1740
     10  H5        35.0010   59.4490    8.9130 H     319  INH319      0.1860
     11  C9        34.4800   61.3800    9.3370 C.2   319  INH319      0.1590
     12  C10       33.3270   62.5330   10.7450 C.3   319  INH319      0.1880
     13  O4        35.4200   64.2400    7.4950 O.2   319  INH319     -0.2650
     14  H10       36.4170   62.2810    6.2850 H     319  INH319      0.1870
     15  H11       36.2840   58.7730    7.1110 H     319  INH319      0.1740
     16  H12       36.9070   59.9880    5.9660 H     319  INH319      0.1740
     17  C5        33.3640   60.0300   11.0970 C.3   319  INH319      0.2620
     18  O2        32.0400   60.1950   11.6390 O.3   319  INH319     -0.3530
     19  C2        32.1100   60.0510   13.0670 C.3   319  INH319      0.1790
     20  C3        33.5520   60.4230   13.4120 C.3   319  INH319      0.1820
     21  C4        34.2860   59.7110   12.2780 C.3   319  INH319      0.1980
     22  C1        31.0960   60.9970   13.7220 C.3   319  INH319      0.1980
     23  O1        31.3440   62.3670   13.3850 O.3   319  INH319     -0.3980
     24  H1        32.1380   62.4260   12.8690 H     319  INH319      0.2090
     25  O5        33.9300   59.8270   14.6590 O.3   319  INH319     -0.3900
     26  H13       34.8770   59.8330   14.7380 H     319  INH319      0.2100
     27  O3        34.2880   58.2950   12.4850 O.3   319  INH319     -0.3880
     28  H7        33.8060   57.8720   11.7850 H     319  INH319      0.2100
@<TRIPOS>BOND
     1    16     8    1
     2    14     6    1
     3     8    15    1
     4     8     7    1
     5     6     7    1
     6     6     5   am
     7    13     5    2
     8     7     9    1
     9     5     4    1
    10     9    10    1
    11     9    11    1
    12     4    11    2
    13     4     2    1
    14    11     1    1
    15     2     3    1
    16     2    12    1
    17     1    12    1
    18     1    17    1
    19    17    18    1
    20    17    21    1
    21    18    19    1
    22    28    27    1
    23    21    27    1
    24    21    20    1
    25    24    23    1
    26    19    20    1
    27    19    22    1
    28    23    22    1
    29    20    25    1
    30    25    26    1
