@<TRIPOS>MOLECULE
/tmp/ewbell/vina_2fqx_2fqx_lig/vina/vina2.pdbqt
 28 30 0 0 0
SMALL
GASTEIGER

@<TRIPOS>ATOM
      1  N1        35.0870   58.8620    9.4300 N.pl3 319  INH319     -0.2970
      2  N2        33.7950   59.6930   10.9670 N.pl3 319  INH319     -0.3450
      3  H2        33.1880   59.7640   11.7830 H     319  INH319      0.1670
      4  C6        34.1600   60.7000   10.1760 C.2   319  INH319      0.1470
      5  C7        33.8750   62.0610   10.1310 C.2   319  INH319      0.2900
      6  N3        34.4150   62.8280    9.0960 N.am  319  INH319     -0.1540
      7  C8        35.2350   62.2290    8.1290 C.3   319  INH319      0.6800
      8  N4        35.7500   62.9600    7.1460 N.3   319  INH319     -0.2340
      9  N5        35.4940   60.9180    8.2070 N.pl3 319  INH319     -0.1740
     10  H5        36.0940   60.4840    7.5050 H     319  INH319      0.1860
     11  C9        34.9810   60.1630    9.1910 C.2   319  INH319      0.1590
     12  C10       34.3600   58.5790   10.5110 C.3   319  INH319      0.1880
     13  O4        33.1840   62.6090   10.9920 O.2   319  INH319     -0.2650
     14  H10       34.2160   63.8060    9.0440 H     319  INH319      0.1870
     15  H11       36.3510   62.5190    6.4380 H     319  INH319      0.1740
     16  H12       35.5470   63.9690    7.0940 H     319  INH319      0.1740
     17  C5        35.8470   57.9190    8.5760 C.3   319  INH319      0.2620
     18  O2        35.3330   58.0480    7.2380 O.3   319  INH319     -0.3530
     19  C2        34.7820   56.7830    6.8360 C.3   319  INH319      0.1790
     20  C3        34.4120   56.0990    8.1530 C.3   319  INH319      0.1820
     21  C4        35.6380   56.4590    8.9890 C.3   319  INH319      0.1980
     22  C1        33.5570   57.0230    5.9450 C.3   319  INH319      0.1980
     23  O1        32.4990   56.0990    6.2260 O.3   319  INH319     -0.3980
     24  H1        32.2970   56.1230    7.1530 H     319  INH319      0.2090
     25  O5        34.3680   54.6790    7.9760 O.3   319  INH319     -0.3900
     26  H13       35.0580   54.4130    7.3790 H     319  INH319      0.2100
     27  O3        36.7770   55.7000    8.5720 O.3   319  INH319     -0.3880
     28  H7        37.1130   55.2030    9.3080 H     319  INH319      0.2100
@<TRIPOS>BOND
     1    22    23    1
     2    22    19    1
     3    23    24    1
     4    15     8    1
     5    19    18    1
     6    19    20    1
     7    16     8    1
     8     8     7    1
     9    18    17    1
    10    26    25    1
    11    10     9    1
    12    25    20    1
    13     7     9    1
    14     7     6    1
    15    20    21    1
    16     9    11    1
    17    27    21    1
    18    27    28    1
    19    17    21    1
    20    17     1    1
    21    14     6    1
    22     6     5   am
    23    11     1    1
    24    11     4    2
    25     1    12    1
    26     5     4    1
    27     5    13    2
    28     4     2    1
    29    12     2    1
    30     2     3    1
