@<TRIPOS>MOLECULE
./ligand/2bbf_lig.pdb
 23 25 0 0 0
SMALL
GASTEIGER

@<TRIPOS>ATOM
      1  C1        18.6590   17.7720   20.5370 C.ar  375  INH375     -0.0224
      2  C2        15.9660   16.8760   19.8060 C.ar  375  INH375     -0.0126
      3  C3        18.1470   17.5960   17.0150 C.ar  375  INH375      0.0944
      4  C4        17.6760   17.4550   21.5240 C.ar  375  INH375      0.0597
      5  C5        16.9490   17.2020   18.8330 C.ar  375  INH375      0.0906
      6  C6        16.3530   17.0150   21.1700 C.ar  375  INH375      0.0441
      7  C7        18.2420   17.6270   19.1850 C.ar  375  INH375      0.0668
      8  C8        17.9340   17.5560   23.0260 C.2   375  INH375      0.2485
      9  C9        15.7420   16.8460   23.4270 C.3   375  INH375      0.2065
     10  N1        16.9410   17.1950   17.4920 N.ar  375  INH375     -0.2359
     11  N2        15.4620   16.7360   22.1690 N.pl3 375  INH375     -0.3065
     12  N3        18.9510   17.8630   18.0720 N.ar  375  INH375     -0.3444
     13  N4        16.9370   17.2440   23.8590 N.am  375  INH375     -0.2741
     14  N5        14.8610   16.5790   24.3410 N.3   375  INH375     -0.2905
     15  O1        19.0290   17.9210   23.4260 O.2   375  INH375     -0.2700
     16  H1        19.6540   18.1000   20.8000 H     375  INH375      0.0647
     17  H2        14.9780   16.5410   19.5260 H     375  INH375      0.0658
     18  H3        18.4180   17.6870   15.9740 H     375  INH375      0.1027
     19  H4        19.8990   18.1780   18.0300 H     375  INH375      0.1668
     20  H5        17.0940   17.3120   24.8440 H     375  INH375      0.1525
     21  H6        13.9910   16.2900   23.9410 H     375  INH375      0.1219
     22  H7        15.0310   16.6530   25.3240 H     375  INH375      0.1219
     23  H8        14.5170   16.4210   21.9060 H     375  INH375      0.1495
@<TRIPOS>BOND
     1     1    16    1
     2     1     7   ar
     3     1     4   ar
     4     2     6   ar
     5     2    17    1
     6     2     5   ar
     7     3    12   ar
     8     3    18    1
     9     3    10   ar
    10     4     8    1
    11     4     6   ar
    12     5    10   ar
    13     5     7   ar
    14     6    11    1
    15     7    12   ar
    16     8    13   am
    17     8    15    2
    18     9    11    1
    19     9    14    1
    20     9    13    1
    21    11    23    1
    22    12    19    1
    23    13    20    1
    24    14    22    1
    25    14    21    1
