@<TRIPOS>MOLECULE
/tmp/ewbell/vina_2bbf_2bbf_lig/vina/vina4.pdbqt
 21 23 0 0 0
SMALL
GASTEIGER

@<TRIPOS>ATOM
      1  C1        12.1370   15.0060   17.2630 C.ar  375  INH375      0.0510
      2  C2        13.6760   17.4840   16.9750 C.ar  375  INH375      0.0690
      3  C3        15.4610   14.7460   18.5200 C.3   375  INH375      0.1810
      4  C4        11.5720   16.1810   16.6790 C.ar  375  INH375      0.0670
      5  C5        14.2250   16.3110   17.5620 C.ar  375  INH375      0.0620
      6  C6        12.3240   17.3990   16.5360 C.ar  375  INH375      0.1400
      7  C7        13.4870   15.1220   17.6950 C.ar  375  INH375      0.0610
      8  C8        10.1370   16.2530   16.1620 C.2   375  INH375      0.2560
      9  C9        10.4900   18.4850   15.5590 C.3   375  INH375      0.7550
     10  N1        15.4300   16.0290   18.0790 N.pl3 375  INH375     -0.3500
     11  H1        16.2100   16.6850   18.1320 H     375  INH375      0.1660
     12  N2        11.7150   18.4870   15.9740 N.pl3 375  INH375     -0.0500
     13  N3        14.2510   14.1880   18.2790 N.pl3 375  INH375     -0.3500
     14  N4         9.7100   17.4090   15.6450 N.am  375  INH375     -0.3120
     15  N5         9.9500   19.5440   15.0400 N.3   375  INH375     -0.3870
     16  O1         9.4180   15.2680   16.2400 O.2   375  INH375     -0.2670
     17  H4        13.9770   13.2510   18.4960 H     375  INH375      0.1660
     18  H5         8.7700   17.4680   15.3090 H     375  INH375      0.1660
     19  H6        10.5940   20.3090   15.0110 H     375  INH375      0.1530
     20  H7         9.0070   19.5900   14.7090 H     375  INH375      0.1530
     21  H8        12.2610   19.3550   15.8750 H     375  INH375      0.2710
@<TRIPOS>BOND
     1    20    15    1
     2    19    15    1
     3    15     9    1
     4    18    14    1
     5     9    14    1
     6     9    12    1
     7    14     8   am
     8    21    12    1
     9    12     6    1
    10     8    16    2
    11     8     4    1
    12     6     4   ar
    13     6     2   ar
    14     4     1   ar
    15     2     5   ar
    16     1     7   ar
    17     5     7   ar
    18     5    10    1
    19     7    13    1
    20    10    11    1
    21    10     3    1
    22    13    17    1
    23    13     3    1
