@<TRIPOS>MOLECULE
/tmp/ewbell/vina_2bbf_2bbf_lig/vina/vina5.pdbqt
 21 23 0 0 0
SMALL
GASTEIGER

@<TRIPOS>ATOM
      1  C1        17.2230   17.5290   17.5960 C.ar  375  INH375      0.0510
      2  C2        15.9790   16.7600   20.1350 C.ar  375  INH375      0.0690
      3  C3        19.0890   18.5760   20.4460 C.3   375  INH375      0.1810
      4  C4        15.9950   16.8000   17.6440 C.ar  375  INH375      0.0670
      5  C5        17.2040   17.4770   20.0760 C.ar  375  INH375      0.0620
      6  C6        15.3810   16.4200   18.8870 C.ar  375  INH375      0.1400
      7  C7        17.7970   17.8500   18.8570 C.ar  375  INH375      0.0610
      8  C8        15.2330   16.3600   16.3950 C.2   375  INH375      0.2560
      9  C9        13.6140   15.3700   17.7610 C.3   375  INH375      0.7550
     10  N1        18.0310   17.9480   21.0200 N.pl3 375  INH375     -0.3500
     11  H1        17.8860   17.8500   22.0260 H     375  INH375      0.1660
     12  N2        14.2090   15.7170   18.8560 N.pl3 375  INH375     -0.0500
     13  N3        18.9380   18.5110   19.1010 N.pl3 375  INH375     -0.3500
     14  N4        14.0990   15.6730   16.5590 N.am  375  INH375     -0.3120
     15  N5        12.5060   14.6940   17.7790 N.3   375  INH375     -0.3870
     16  O1        15.6760   16.6360   15.2910 O.2   375  INH375     -0.2670
     17  H4        19.5620   18.8880   18.4170 H     375  INH375      0.1660
     18  H5        13.5960   15.3760   15.7480 H     375  INH375      0.1660
     19  H6        12.2070   14.5030   18.7140 H     375  INH375      0.1530
     20  H7        12.0130   14.4010   16.9600 H     375  INH375      0.1530
     21  H8        13.7760   15.4500   19.7520 H     375  INH375      0.2710
@<TRIPOS>BOND
     1    16     8    2
     2    18    14    1
     3     8    14   am
     4     8     4    1
     5    14     9    1
     6    20    15    1
     7     1     4   ar
     8     1     7   ar
     9     4     6   ar
    10     9    15    1
    11     9    12    1
    12    15    19    1
    13    17    13    1
    14    12     6    1
    15    12    21    1
    16     7    13    1
    17     7     5   ar
    18     6     2   ar
    19    13     3    1
    20     5     2   ar
    21     5    10    1
    22     3    10    1
    23    10    11    1
