@<TRIPOS>MOLECULE
/tmp/ewbell/vina_2bbf_2bbf_lig/vina/vina1.pdbqt
 21 23 0 0 0
SMALL
GASTEIGER

@<TRIPOS>ATOM
      1  C1        18.6140   17.8270   20.5390 C.ar  375  INH375      0.0510
      2  C2        15.9300   16.9000   19.8170 C.ar  375  INH375      0.0690
      3  C3        18.1170   17.5720   17.0190 C.3   375  INH375      0.1810
      4  C4        17.6290   17.5260   21.5280 C.ar  375  INH375      0.0670
      5  C5        16.9150   17.2100   18.8410 C.ar  375  INH375      0.0620
      6  C6        16.3100   17.0700   21.1790 C.ar  375  INH375      0.1400
      7  C7        18.2040   17.6500   19.1880 C.ar  375  INH375      0.0610
      8  C8        17.8810   17.6610   23.0290 C.2   375  INH375      0.2560
      9  C9        15.6910   16.9470   23.4370 C.3   375  INH375      0.7550
     10  N1        16.9120   17.1740   17.5000 N.pl3 375  INH375     -0.3500
     11  H1        16.1190   16.8890   16.9250 H     375  INH375      0.1660
     12  N2        15.4170   16.8080   22.1800 N.pl3 375  INH375     -0.0500
     13  N3        18.9160   17.8660   18.0730 N.pl3 375  INH375     -0.3500
     14  N4        16.8820   17.3610   23.8650 N.am  375  INH375     -0.3120
     15  N5        14.8080   16.6950   24.3530 N.3   375  INH375     -0.3870
     16  O1        18.9720   18.0410   23.4250 O.2   375  INH375     -0.2670
     17  H4        19.8620   18.1860   18.0280 H     375  INH375      0.1660
     18  H5        17.0350   17.4520   24.8490 H     375  INH375      0.1660
     19  H6        13.9420   16.3920   23.9560 H     375  INH375      0.1530
     20  H7        14.9740   16.7910   25.3350 H     375  INH375      0.1530
     21  H8        14.4750   16.4820   21.9210 H     375  INH375      0.2710
@<TRIPOS>BOND
     1    11    10    1
     2     3    10    1
     3     3    13    1
     4    10     5    1
     5    17    13    1
     6    13     7    1
     7     5     7   ar
     8     5     2   ar
     9     7     1   ar
    10     2     6   ar
    11     1     4   ar
    12     6     4   ar
    13     6    12    1
    14     4     8    1
    15    21    12    1
    16    12     9    1
    17     8    16    2
    18     8    14   am
    19     9    14    1
    20     9    15    1
    21    14    18    1
    22    19    15    1
    23    15    20    1
