@<TRIPOS>MOLECULE
/tmp/ewbell/vina_2bbf_2bbf_lig/vina/vina3.pdbqt
 21 23 0 0 0
SMALL
GASTEIGER

@<TRIPOS>ATOM
      1  C1        15.6070   16.7570   19.1230 C.ar  375  INH375      0.0510
      2  C2        18.1870   18.1480   19.1300 C.ar  375  INH375      0.0690
      3  C3        16.8780   17.3390   22.4010 C.3   375  INH375      0.1810
      4  C4        16.2540   17.1520   17.9120 C.ar  375  INH375      0.0670
      5  C5        17.5310   17.7570   20.3280 C.ar  375  INH375      0.0620
      6  C6        17.5200   17.8360   17.9110 C.ar  375  INH375      0.1400
      7  C7        16.2960   17.0860   20.3240 C.ar  375  INH375      0.0610
      8  C8        15.6670   16.8930   16.5260 C.2   375  INH375      0.2560
      9  C9        17.5240   17.9440   15.5690 C.3   375  INH375      0.7550
     10  N1        17.8490   17.8860   21.6250 N.pl3 375  INH375     -0.3500
     11  H1        18.6970   18.3300   21.9770 H     375  INH375      0.1660
     12  N2        18.0760   18.1900   16.7130 N.pl3 375  INH375     -0.0500
     13  N3        15.9160   16.8440   21.5860 N.pl3 375  INH375     -0.3500
     14  N4        16.3550   17.3170   15.4620 N.am  375  INH375     -0.3120
     15  N5        18.0840   18.3080   14.4570 N.3   375  INH375     -0.3870
     16  O1        14.5940   16.3180   16.4240 O.2   375  INH375     -0.2670
     17  H4        15.0770   16.3820   21.8740 H     375  INH375      0.1660
     18  H5        15.9760   17.1570   14.5500 H     375  INH375      0.1660
     19  H6        18.9550   18.7730   14.6180 H     375  INH375      0.1530
     20  H7        17.6940   18.1430   13.5510 H     375  INH375      0.1530
     21  H8        18.9830   18.6780   16.7210 H     375  INH375      0.2710
@<TRIPOS>BOND
     1    20    15    1
     2    15    19    1
     3    15     9    1
     4    18    14    1
     5    14     9    1
     6    14     8   am
     7     9    12    1
     8    16     8    2
     9     8     4    1
    10    12    21    1
    11    12     6    1
    12     6     4   ar
    13     6     2   ar
    14     4     1   ar
    15     1     7   ar
    16     2     5   ar
    17     7     5   ar
    18     7    13    1
    19     5    10    1
    20    13    17    1
    21    13     3    1
    22    10    11    1
    23    10     3    1
