@<TRIPOS>MOLECULE
/tmp/ewbell/vina_2bbf_2bbf_lig/vina/vina2.pdbqt
 21 23 0 0 0
SMALL
GASTEIGER

@<TRIPOS>ATOM
      1  C1        13.0330   17.9330   16.3070 C.ar  375  INH375      0.0510
      2  C2        11.3760   15.5970   16.9300 C.ar  375  INH375      0.0690
      3  C3         9.6470   18.2940   15.2560 C.3   375  INH375      0.1810
      4  C4        13.5650   16.7870   16.9740 C.ar  375  INH375      0.0670
      5  C5        10.8550   16.7450   16.2750 C.ar  375  INH375      0.0620
      6  C6        12.7560   15.6380   17.2820 C.ar  375  INH375      0.1400
      7  C7        11.6520   17.8630   15.9720 C.ar  375  INH375      0.0610
      8  C8        15.0220   16.6780   17.4190 C.2   375  INH375      0.2560
      9  C9        14.5760   14.5510   18.2830 C.3   375  INH375      0.7550
     10  N1         9.6350   17.0560   15.8130 N.pl3 375  INH375     -0.3500
     11  H1         8.8170   16.4490   15.8700 H     375  INH375      0.1660
     12  N2        13.3320   14.5800   17.9290 N.pl3 375  INH375     -0.0500
     13  N3        10.9040   18.7900   15.3590 N.pl3 375  INH375     -0.3500
     14  N4        15.4090   15.5620   18.0440 N.am  375  INH375     -0.3120
     15  N5        15.0770   13.5290   18.9040 N.3   375  INH375     -0.3870
     16  O1        15.7890   17.6030   17.2010 O.2   375  INH375     -0.2670
     17  H4        11.2150   19.6840   15.0360 H     375  INH375      0.1660
     18  H5        16.3590   15.4830   18.3440 H     375  INH375      0.1660
     19  H6        14.3930   12.8140   19.0490 H     375  INH375      0.1530
     20  H7        16.0310   13.4630   19.2000 H     375  INH375      0.1530
     21  H8        12.7450   13.7620   18.1450 H     375  INH375      0.2710
@<TRIPOS>BOND
     1    17    13    1
     2     3    13    1
     3     3    10    1
     4    13     7    1
     5    10    11    1
     6    10     5    1
     7     7     5   ar
     8     7     1   ar
     9     5     2   ar
    10     1     4   ar
    11     2     6   ar
    12     4     6   ar
    13     4     8    1
    14    16     8    2
    15     6    12    1
    16     8    14   am
    17    12    21    1
    18    12     9    1
    19    14     9    1
    20    14    18    1
    21     9    15    1
    22    15    19    1
    23    15    20    1
