@<TRIPOS>MOLECULE
./ligand/1nw5_lig.pdb
 50 52 0 0 0
SMALL
GASTEIGER

@<TRIPOS>ATOM
      1  N1        26.5530   16.9510    0.1820 N.4   275  INH275      0.2289
      2  C1        26.6910   16.9820   -1.2790 C.3   275  INH275      0.0793
      3  C2        26.7070   15.5780   -1.9060 C.2   275  INH275      0.4026
      4  O1        26.8530   15.4790   -3.1280 O.co2 275  INH275     -0.2400
      5  C3        27.9940   17.6990   -1.7220 C.3   275  INH275      0.0092
      6  C4        27.9200   19.2490   -1.5940 C.3   275  INH275     -0.0095
      7  O2        26.5610   14.6140   -1.1460 O.co2 275  INH275     -0.2400
      8  S1        29.4590   20.1320   -2.0780 S.3   275  INH275     -0.2086
      9  C5        30.5550   19.9410   -0.6360 C.3   275  INH275     -0.0267
     10  C6        29.0000   21.8750   -2.1740 C.3   275  INH275      0.0137
     11  C7        28.1210   22.2410   -3.3800 C.3   275  INH275      0.0979
     12  O3        27.7670   23.6090   -3.3560 O.3   275  INH275     -0.3472
     13  C8        28.7410   21.9740   -4.7670 C.3   275  INH275      0.1121
     14  O4        28.0630   20.9470   -5.4800 O.3   275  INH275     -0.3865
     15  C9        28.8200   23.3610   -5.4010 C.3   275  INH275      0.1285
     16  O5        28.4440   23.3480   -6.7790 O.3   275  INH275     -0.3847
     17  C10       27.7070   24.1130   -4.6670 C.3   275  INH275      0.1664
     18  N2        27.8700   25.5720   -4.5350 N.ar  275  INH275     -0.2877
     19  C11       28.9550   26.3660   -4.3770 C.ar  275  INH275      0.0999
     20  N3        28.6560   27.6680   -4.2810 N.ar  275  INH275     -0.2346
     21  C12       27.2640   27.7470   -4.3810 C.ar  275  INH275      0.1287
     22  C13       26.2800   28.7290   -4.3590 C.3   275  INH275      0.2004
     23  N4        26.5870   30.0440   -4.2040 N.3   275  INH275     -0.2985
     24  N5        24.9470   28.4030   -4.4920 N.2   275  INH275     -0.2420
     25  C14       24.5890   27.1090   -4.6490 C.2   275  INH275      0.1049
     26  N6        25.4790   26.0980   -4.6800 N.pl3 275  INH275     -0.1840
     27  C15       26.7890   26.4310   -4.5440 C.ar  275  INH275      0.1528
     28  H1        26.5480   17.8940    0.5390 H     275  INH275      0.2002
     29  H2        27.3270   16.4440    0.5820 H     275  INH275      0.2002
     30  H3        25.6890   16.4940    0.4280 H     275  INH275      0.2002
     31  H4        25.8300   17.5350   -1.6830 H     275  INH275      0.0970
     32  H5        28.1920   17.4450   -2.7740 H     275  INH275      0.0333
     33  H6        28.8220   17.3360   -1.0950 H     275  INH275      0.0333
     34  H7        27.6980   19.4960   -0.5450 H     275  INH275      0.0371
     35  H8        27.1020   19.6080   -2.2370 H     275  INH275      0.0371
     36  H9        31.5130   20.4440   -0.8350 H     275  INH275      0.0333
     37  H10       30.7330   18.8720   -0.4500 H     275  INH275      0.0333
     38  H11       30.0800   20.3920    0.2480 H     275  INH275      0.0333
     39  H12       29.9230   22.4700   -2.2300 H     275  INH275      0.0395
     40  H13       28.4500   22.1360   -1.2580 H     275  INH275      0.0395
     41  H14       27.2040   21.6380   -3.3010 H     275  INH275      0.0631
     42  H15       29.7710   21.6140   -4.6290 H     275  INH275      0.0647
     43  H16       28.4800   20.8190   -6.3240 H     275  INH275      0.2100
     44  H17       29.8120   23.8170   -5.2660 H     275  INH275      0.0665
     45  H18       27.5860   22.9510   -6.8700 H     275  INH275      0.2101
     46  H19       26.7400   23.8980   -5.1450 H     275  INH275      0.0866
     47  H20       29.9730   25.9830   -4.3320 H     275  INH275      0.1030
     48  H21       25.8370   30.7500   -4.1920 H     275  INH275      0.1209
     49  H22       27.5700   30.3350   -4.0990 H     275  INH275      0.1209
     50  H23       23.5360   26.8740   -4.7550 H     275  INH275      0.1015
@<TRIPOS>BOND
     1     1    30    1
     2     1    29    1
     3     1    28    1
     4     1     2    1
     5     2    31    1
     6     2     5    1
     7     2     3    1
     8     3     7   ar
     9     3     4   ar
    10     5    33    1
    11     5    32    1
    12     5     6    1
    13     6    35    1
    14     6    34    1
    15     6     8    1
    16     8    10    1
    17     8     9    1
    18     9    38    1
    19     9    37    1
    20     9    36    1
    21    10    40    1
    22    10    39    1
    23    10    11    1
    24    11    41    1
    25    11    13    1
    26    11    12    1
    27    12    17    1
    28    13    15    1
    29    13    42    1
    30    13    14    1
    31    14    43    1
    32    15    17    1
    33    15    44    1
    34    15    16    1
    35    16    45    1
    36    17    46    1
    37    17    18    1
    38    18    27   ar
    39    18    19   ar
    40    19    47    1
    41    19    20   ar
    42    20    21   ar
    43    21    27   ar
    44    21    22    1
    45    22    24    1
    46    22    23    1
    47    23    49    1
    48    23    48    1
    49    24    25    2
    50    25    50    1
    51    25    26    1
    52    26    27    1
