@<TRIPOS>MOLECULE
/tmp/ewbell/vina_1nw5_1nw5_lig/vina/vina4.pdbqt
 38 40 0 0 0
SMALL
GASTEIGER

@<TRIPOS>ATOM
      1  C7        30.0730   23.4780   -4.7400 C.3   275  INH275      0.1640
      2  O3        29.8090   24.7960   -4.3050 O.3   275  INH275     -0.3550
      3  C8        29.4520   23.3500   -6.1470 C.3   275  INH275      0.1800
      4  C9        28.9800   24.7670   -6.4640 C.3   275  INH275      0.1980
      5  C10       28.7680   25.3550   -5.0670 C.3   275  INH275      0.2610
      6  N2        28.9230   26.8150   -4.9340 N.pl3 275  INH275     -0.3010
      7  C15       27.8480   27.6430   -4.6800 C.2   275  INH275      0.1150
      8  C12       28.3170   28.9680   -4.5890 C.2   275  INH275      0.1120
      9  N6        26.5480   27.2750   -4.5320 N.pl3 275  INH275     -0.3400
     10  N3        29.6980   28.9260   -4.8010 N.pl3 275  INH275     -0.3700
     11  C13       27.3400   29.9200   -4.3220 C.3   275  INH275      0.2830
     12  C11       29.9980   27.6350   -4.9970 C.3   275  INH275      0.1830
     13  H3        30.3430   29.7150   -4.8050 H     275  INH275      0.1610
     14  N5        26.0180   29.5600   -4.1670 N.3   275  INH275     -0.3630
     15  C14       25.6640   28.2600   -4.2770 C.3   275  INH275      0.1790
     16  H5        25.3120   30.2690   -3.9700 H     275  INH275      0.1620
     17  H         26.2660   26.3360   -4.6080 H     275  INH275      0.1680
     18  N4        27.6430   31.2400   -4.2020 N.3   275  INH275     -0.4080
     19  H22       27.1540   31.8200   -3.5050 H     275  INH275      0.1520
     20  H21       28.3630   31.6600   -4.8080 H     275  INH275      0.1520
     21  O5        27.6980   24.7810   -7.0960 O.3   275  INH275     -0.3880
     22  H18       27.7110   25.3890   -7.8250 H     275  INH275      0.2100
     23  C6        31.5710   23.1510   -4.6400 C.3   275  INH275      0.0970
     24  S1        31.9970   21.9550   -3.3570 S.3   275  INH275     -0.2210
     25  C5        33.4450   22.6090   -2.4680 C.3   275  INH275      0.0780
     26  C4        30.6320   22.0520   -2.1280 C.3   275  INH275      0.0650
     27  C3        30.0830   20.6730   -1.6570 C.3   275  INH275      0.0530
     28  C1        28.8640   20.1820   -2.4820 C.3   275  INH275      0.2810
     29  N1        27.9100   21.2650   -2.7480 N.4   275  INH275     -0.0650
     30  H3        28.3210   22.1470   -2.4820 H     275  INH275      0.2750
     31  H2        27.6870   21.2820   -3.7310 H     275  INH275      0.2750
     32  H1        27.0690   21.1110   -2.2140 H     275  INH275      0.2750
     33  C2        28.2350   19.0090   -1.7120 C.2   275  INH275      0.1710
     34  O2        28.7800   17.9040   -1.8130 O.2   275  INH275     -0.6480
     35  O1        27.2300   19.2250   -1.0270 O.3   275  INH275     -0.7750
     36  H         26.6730   19.9500   -1.2280 H     275  INH275      0.1670
     37  O4        28.5060   22.2910   -6.2310 O.3   275  INH275     -0.3900
     38  H16       28.9550   21.4810   -6.4440 H     275  INH275      0.2100
@<TRIPOS>BOND
     1    22    21    1
     2    21     4    1
     3     4     3    1
     4     4     5    1
     5    38    37    1
     6    37     3    1
     7     3     1    1
     8     5     6    1
     9     5     2    1
    10    12     6    1
    11    12    10    1
    12     6     7    1
    13    20    18    1
    14    13    10    1
    15    10     8    1
    16     1    23    1
    17     1     2    1
    18     7     8    2
    19     7     9    1
    20    23    24    1
    21    17     9    1
    22     8    11    1
    23     9    15    1
    24    11    18    1
    25    11    14    1
    26    15    14    1
    27    18    19    1
    28    14    16    1
    29    31    29    1
    30    24    25    1
    31    24    26    1
    32    29    28    1
    33    29    30    1
    34    29    32    1
    35    28    33    1
    36    28    27    1
    37    26    27    1
    38    34    33    2
    39    33    35    1
    40    36    35    1
