@<TRIPOS>MOLECULE
/tmp/ewbell/vina_1nw5_1nw5_lig/vina/vina1.pdbqt
 38 40 0 0 0
SMALL
GASTEIGER

@<TRIPOS>ATOM
      1  C7        28.7520   22.7850   -3.5260 C.3   275  INH275      0.1640
      2  O3        28.4420   24.1640   -3.4940 O.3   275  INH275     -0.3550
      3  C8        29.1570   22.4610   -4.9780 C.3   275  INH275      0.1800
      4  C9        29.1810   23.8270   -5.6600 C.3   275  INH275      0.1980
      5  C10       28.2070   24.6330   -4.7980 C.3   275  INH275      0.2610
      6  N2        28.4270   26.0890   -4.7370 N.pl3 275  INH275     -0.3010
      7  C15       27.3790   26.9820   -4.6210 C.2   275  INH275      0.1150
      8  C12       27.9080   28.2860   -4.5680 C.2   275  INH275      0.1120
      9  N6        26.0550   26.6860   -4.5600 N.pl3 275  INH275     -0.3400
     10  N3        29.2980   28.1660   -4.6630 N.pl3 275  INH275     -0.3700
     11  C13       26.9650   29.2990   -4.4390 C.3   275  INH275      0.2830
     12  C11       29.5450   26.8530   -4.7590 C.3   275  INH275      0.1830
     13  H3        29.9820   28.9220   -4.6600 H     275  INH275      0.1610
     14  N5        25.6180   29.0110   -4.3720 N.3   275  INH275     -0.3630
     15  C14       25.2060   27.7250   -4.4350 C.3   275  INH275      0.1790
     16  H5        24.9360   29.7650   -4.2750 H     275  INH275      0.1620
     17  H         25.7310   25.7580   -4.6040 H     275  INH275      0.1680
     18  N4        27.3260   30.6070   -4.3710 N.3   275  INH275     -0.4080
     19  H22       27.0880   31.1650   -3.5380 H     275  INH275      0.1520
     20  H21       27.8390   31.0410   -5.1510 H     275  INH275      0.1520
     21  O5        28.6100   23.7880   -6.9690 O.3   275  INH275     -0.3880
     22  H18       29.2290   23.3980   -7.5740 H     275  INH275      0.2100
     23  C6        29.7860   22.4250   -2.4480 C.3   275  INH275      0.0970
     24  S1        30.1130   20.6580   -2.2780 S.3   275  INH275     -0.2210
     25  C5        30.7420   20.3840   -0.5910 C.3   275  INH275      0.0780
     26  C4        28.4590   19.8540   -2.2780 C.3   275  INH275      0.0650
     27  C3        28.4610   18.3650   -1.8240 C.3   275  INH275      0.0530
     28  C1        27.0680   17.6890   -1.9230 C.3   275  INH275      0.2810
     29  N1        26.2940   17.8460   -0.6860 N.4   275  INH275     -0.0650
     30  H3        25.4890   18.4260   -0.8650 H     275  INH275      0.2750
     31  H2        25.9900   16.9410   -0.3620 H     275  INH275      0.2750
     32  H1        26.8710   18.2790    0.0180 H     275  INH275      0.2750
     33  C2        27.3010   16.2150   -2.2970 C.2   275  INH275      0.1710
     34  O2        26.9960   15.3600   -1.4580 O.2   275  INH275     -0.6480
     35  O1        27.7680   15.9560   -3.4100 O.3   275  INH275     -0.7750
     36  H         28.4610   15.3310   -3.4930 H     275  INH275      0.1670
     37  O4        28.3560   21.4370   -5.5540 O.3   275  INH275     -0.3900
     38  H16       27.5080   21.4190   -5.1250 H     275  INH275      0.2100
@<TRIPOS>BOND
     1    22    21    1
     2    21     4    1
     3     4     3    1
     4     4     5    1
     5    37    38    1
     6    37     3    1
     7    20    18    1
     8     3     1    1
     9     5     6    1
    10     5     2    1
    11    12     6    1
    12    12    10    1
    13     6     7    1
    14    10    13    1
    15    10     8    1
    16     7     8    2
    17     7     9    1
    18    17     9    1
    19     8    11    1
    20     9    15    1
    21    11    14    1
    22    11    18    1
    23    15    14    1
    24    14    16    1
    25    18    19    1
    26     1     2    1
    27     1    23    1
    28    36    35    1
    29    35    33    1
    30    23    24    1
    31    33    28    1
    32    33    34    2
    33    24    26    1
    34    24    25    1
    35    26    27    1
    36    28    27    1
    37    28    29    1
    38    30    29    1
    39    29    31    1
    40    29    32    1
