@<TRIPOS>MOLECULE
/tmp/ewbell/vina_1nw5_1nw5_lig/vina/vina2.pdbqt
 38 40 0 0 0
SMALL
GASTEIGER

@<TRIPOS>ATOM
      1  C7        34.2890   19.5550    1.1570 C.3   275  INH275      0.1640
      2  O3        35.1050   18.8350    2.0580 O.3   275  INH275     -0.3550
      3  C8        32.8640   19.5380    1.7480 C.3   275  INH275      0.1800
      4  C9        33.0470   18.8800    3.1140 C.3   275  INH275      0.1980
      5  C10       34.3080   18.0380    2.8980 C.3   275  INH275      0.2610
      6  N2        35.1360   17.7700    4.0880 N.3   275  INH275     -0.3010
      7  C15       35.7410   16.5470    4.2950 C.3   275  INH275      0.1150
      8  C12       36.4720   16.6090    5.4970 C.2   275  INH275      0.1120
      9  N6        35.6700   15.4510    3.4940 N.3   275  INH275     -0.3400
     10  N3        36.2900   17.8930    6.0190 N.pl3 275  INH275     -0.3700
     11  C13       37.1510   15.4430    5.8340 C.2   275  INH275      0.2830
     12  C11       35.4970   18.5310    5.1480 C.3   275  INH275      0.1830
     13  H3        36.6800   18.2670    6.8840 H     275  INH275      0.1610
     14  N5        37.0890   14.3270    5.0280 N.pl3 275  INH275     -0.3630
     15  C14       36.3560   14.3620    3.8930 C.3   275  INH275      0.1790
     16  H5        37.5940   13.4780    5.2860 H     275  INH275      0.1620
     17  H         35.1420   15.4530    2.6630 H     275  INH275      0.1680
     18  N4        37.9010   15.3550    6.9640 N.pl3 275  INH275     -0.4080
     19  H22       38.8640   14.9910    6.9160 H     275  INH275      0.1520
     20  H21       37.5080   15.6530    7.8680 H     275  INH275      0.1520
     21  O5        32.0020   17.9540    3.4120 O.3   275  INH275     -0.3880
     22  H18       32.2630   17.0820    3.1400 H     275  INH275      0.2100
     23  C6        34.8760   20.9450    0.8670 C.3   275  INH275      0.0970
     24  S1        36.5030   21.2410    1.5900 S.3   275  INH275     -0.2210
     25  C5        37.2000   22.7090    0.7670 C.3   275  INH275      0.0780
     26  C4        36.1770   21.8020    3.3110 C.3   275  INH275      0.0650
     27  C3        37.3210   21.4940    4.3210 C.3   275  INH275      0.0530
     28  C1        37.1570   22.2270    5.6790 C.3   275  INH275      0.2810
     29  N1        37.4420   23.6630    5.5640 N.4   275  INH275     -0.0650
     30  H3        36.7870   24.1810    6.1280 H     275  INH275      0.2750
     31  H2        38.3800   23.8460    5.8850 H     275  INH275      0.2750
     32  H1        37.3550   23.9460    4.6000 H     275  INH275      0.2750
     33  C2        38.0690   21.5180    6.6930 C.2   275  INH275      0.1710
     34  O2        38.3000   20.3180    6.5080 O.2   275  INH275     -0.6480
     35  O1        38.5330   22.1750    7.6300 O.3   275  INH275     -0.7750
     36  H         39.4590   22.2920    7.7070 H     275  INH275      0.1670
     37  O4        31.9090   18.9790    0.8550 O.3   275  INH275     -0.3900
     38  H16       32.1670   18.0930    0.6290 H     275  INH275      0.2100
@<TRIPOS>BOND
     1    38    37    1
     2    25    24    1
     3    37     3    1
     4    23     1    1
     5    23    24    1
     6     1     3    1
     7     1     2    1
     8    24    26    1
     9     3     4    1
    10     2     5    1
    11    17     9    1
    12     5     4    1
    13     5     6    1
    14     4    21    1
    15    22    21    1
    16    26    27    1
    17     9    15    1
    18     9     7    1
    19    15    14    1
    20     6     7    1
    21     6    12    1
    22     7     8    1
    23    27    28    1
    24    32    29    1
    25    14    16    1
    26    14    11    1
    27    12    10    1
    28     8    11    2
    29     8    10    1
    30    29    28    1
    31    29    31    1
    32    29    30    1
    33    28    33    1
    34    11    18    1
    35    10    13    1
    36    34    33    2
    37    33    35    1
    38    19    18    1
    39    18    20    1
    40    35    36    1
