@<TRIPOS>MOLECULE
/tmp/ewbell/vina_1nw5_1nw5_lig/vina/vina3.pdbqt
 38 40 0 0 0
SMALL
GASTEIGER

@<TRIPOS>ATOM
      1  C7        28.7180   23.0030   -4.0690 C.3   275  INH275      0.1640
      2  O3        28.1360   24.2620   -3.7980 O.3   275  INH275     -0.3550
      3  C8        29.0390   22.9850   -5.5780 C.3   275  INH275      0.1800
      4  C9        28.7150   24.4060   -6.0330 C.3   275  INH275      0.1980
      5  C10       27.6840   24.8490   -4.9930 C.3   275  INH275      0.2610
      6  N2        27.6040   26.2940   -4.7140 N.3   275  INH275     -0.3010
      7  C15       28.7350   27.0760   -4.5840 C.3   275  INH275      0.1150
      8  C12       28.3330   28.4040   -4.3420 C.2   275  INH275      0.1120
      9  N6        30.0280   26.6680   -4.6720 N.3   275  INH275     -0.3400
     10  N3        26.9350   28.4100   -4.3210 N.pl3 275  INH275     -0.3700
     11  C13       29.3720   29.3170   -4.1990 C.2   275  INH275      0.2830
     12  C11       26.5630   27.1430   -4.5470 C.3   275  INH275      0.1830
     13  H3        26.3250   29.2120   -4.1660 H     275  INH275      0.1610
     14  N5        30.6880   28.9150   -4.2900 N.pl3 275  INH275     -0.3630
     15  C14       30.9750   27.6140   -4.5200 C.3   275  INH275      0.1790
     16  H5        31.4410   29.5960   -4.1850 H     275  INH275      0.1620
     17  H         30.2610   25.7260   -4.8380 H     275  INH275      0.1680
     18  N4        29.1380   30.6350   -3.9670 N.pl3 275  INH275     -0.4080
     19  H22       28.9770   31.2770   -4.7560 H     275  INH275      0.1520
     20  H21       29.1210   30.9930   -3.0010 H     275  INH275      0.1520
     21  O5        28.0400   24.4300   -7.2920 O.3   275  INH275     -0.3880
     22  H18       27.1670   24.0720   -7.1900 H     275  INH275      0.2100
     23  C6        29.9030   22.7270   -3.1310 C.3   275  INH275      0.0970
     24  S1        30.2010   20.9810   -2.7860 S.3   275  INH275     -0.2210
     25  C5        30.9510   20.8770   -1.1300 C.3   275  INH275      0.0780
     26  C4        28.5330   20.2350   -2.5730 C.3   275  INH275      0.0650
     27  C3        28.5270   18.8550   -1.8530 C.3   275  INH275      0.0530
     28  C1        27.1890   18.0840   -2.0110 C.3   275  INH275      0.2810
     29  N1        26.4090   18.0840   -0.7670 N.4   275  INH275     -0.0650
     30  H3        27.0250   18.2350    0.0160 H     275  INH275      0.2750
     31  H2        25.7220   18.8210   -0.8020 H     275  INH275      0.2750
     32  H1        25.9440   17.1950   -0.6630 H     275  INH275      0.2750
     33  C2        27.5330   16.6670   -2.4990 C.2   275  INH275      0.1710
     34  O2        26.6050   15.8550   -2.5850 O.2   275  INH275     -0.6480
     35  O1        28.7050   16.4120   -2.7900 O.3   275  INH275     -0.7750
     36  H         29.3060   16.1450   -2.1220 H     275  INH275      0.1670
     37  O4        28.4140   21.9030   -6.2570 O.3   275  INH275     -0.3900
     38  H16       28.5680   21.0970   -5.7780 H     275  INH275      0.2100
@<TRIPOS>BOND
     1    21    22    1
     2    21     4    1
     3    37    38    1
     4    37     3    1
     5     4     3    1
     6     4     5    1
     7     3     1    1
     8     5     6    1
     9     5     2    1
    10    17     9    1
    11    19    18    1
    12     6     7    1
    13     6    12    1
    14     9     7    1
    15     9    15    1
    16     7     8    1
    17    12    10    1
    18    15    14    1
    19     8    10    1
    20     8    11    2
    21    10    13    1
    22    14    11    1
    23    14    16    1
    24    11    18    1
    25     1     2    1
    26     1    23    1
    27    18    20    1
    28    23    24    1
    29    35    33    1
    30    35    36    1
    31    24    26    1
    32    24    25    1
    33    34    33    2
    34    26    27    1
    35    33    28    1
    36    28    27    1
    37    28    29    1
    38    31    29    1
    39    29    32    1
    40    29    30    1
