@<TRIPOS>MOLECULE
/tmp/ewbell/vina_1nw5_1nw5_lig/vina/vina5.pdbqt
 38 40 0 0 0
SMALL
GASTEIGER

@<TRIPOS>ATOM
      1  C7        29.3380   25.0760   -4.4350 C.3   275  INH275      0.1640
      2  O3        29.1700   26.4600   -4.1990 O.3   275  INH275     -0.3550
      3  C8        27.9990   24.5630   -5.0040 C.3   275  INH275      0.1800
      4  C9        27.1740   25.8350   -5.1890 C.3   275  INH275      0.1980
      5  C10       27.8010   26.7770   -4.1580 C.3   275  INH275      0.2610
      6  N2        27.7230   28.2200   -4.4470 N.pl3 275  INH275     -0.3010
      7  C15       28.7150   29.0970   -4.0560 C.2   275  INH275      0.1150
      8  C12       28.3640   30.3900   -4.4910 C.2   275  INH275      0.1120
      9  N6        29.8500   28.7990   -3.3710 N.pl3 275  INH275     -0.3400
     10  N3        27.1350   30.2790   -5.1480 N.pl3 275  INH275     -0.3700
     11  C13       29.2810   31.3860   -4.1760 C.3   275  INH275      0.2830
     12  C11       26.8080   28.9810   -5.0920 C.3   275  INH275      0.1830
     13  H3        26.5980   31.0310   -5.5800 H     275  INH275      0.1610
     14  N5        30.4380   31.0950   -3.4850 N.3   275  INH275     -0.3630
     15  C14       30.6850   29.8210   -3.1050 C.3   275  INH275      0.1790
     16  H5        31.1040   31.8360   -3.2630 H     275  INH275      0.1620
     17  H         30.0510   27.8790   -3.0830 H     275  INH275      0.1680
     18  N4        29.0800   32.6820   -4.5350 N.3   275  INH275     -0.4080
     19  H22       29.6140   33.4330   -4.0750 H     275  INH275      0.1520
     20  H21       28.3940   32.9120   -5.2680 H     275  INH275      0.1520
     21  O5        25.8140   25.6600   -4.7870 O.3   275  INH275     -0.3880
     22  H18       25.2960   25.3870   -5.5340 H     275  INH275      0.2100
     23  C6        30.5780   24.8090   -5.3020 C.3   275  INH275      0.0970
     24  S1        31.3830   23.2220   -4.9960 S.3   275  INH275     -0.2210
     25  C5        33.1650   23.5470   -4.8130 C.3   275  INH275      0.0780
     26  C4        30.8410   22.7170   -3.3130 C.3   275  INH275      0.0650
     27  C3        30.6130   21.1870   -3.1360 C.3   275  INH275      0.0530
     28  C1        29.4960   20.8450   -2.1150 C.3   275  INH275      0.2810
     29  N1        29.9730   19.9340   -1.0670 N.4   275  INH275     -0.0650
     30  H3        30.9750   20.0060   -0.9900 H     275  INH275      0.2750
     31  H2        29.5490   20.1830   -0.1870 H     275  INH275      0.2750
     32  H1        29.7210   18.9870   -1.3060 H     275  INH275      0.2750
     33  C2        28.3110   20.2720   -2.9090 C.2   275  INH275      0.1710
     34  O2        28.0970   20.7440   -4.0320 O.2   275  INH275     -0.6480
     35  O1        27.6410   19.3680   -2.4000 O.3   275  INH275     -0.7750
     36  H         27.8870   18.4730   -2.5280 H     275  INH275      0.1670
     37  O4        27.4440   23.5090   -4.2270 O.3   275  INH275     -0.3900
     38  H16       26.5310   23.6980   -4.0430 H     275  INH275      0.2100
@<TRIPOS>BOND
     1    13    10    1
     2    22    21    1
     3    23    24    1
     4    23     1    1
     5    20    18    1
     6     4     3    1
     7     4    21    1
     8     4     5    1
     9    10    12    1
    10    10     8    1
    11    12     6    1
    12     3     1    1
    13     3    37    1
    14    24    25    1
    15    24    26    1
    16    18    11    1
    17    18    19    1
    18     8    11    1
    19     8     7    2
    20     6     5    1
    21     6     7    1
    22     1     2    1
    23    37    38    1
    24     2     5    1
    25    11    14    1
    26     7     9    1
    27    34    33    2
    28    14    16    1
    29    14    15    1
    30     9    15    1
    31     9    17    1
    32    26    27    1
    33    27    28    1
    34    33    35    1
    35    33    28    1
    36    36    35    1
    37    28    29    1
    38    32    29    1
    39    29    30    1
    40    29    31    1
