@<TRIPOS>MOLECULE
./ligand/2hdr_lig.pdb
 17 17 0 0 0
SMALL
GASTEIGER

@<TRIPOS>ATOM
      1  C1        22.0320    4.8150   12.1330 C.ar  357  INH357     -0.0367
      2  H1        22.2460    4.9350   13.1850 H     357  INH357      0.0637
      3  C2        20.5820    4.0130   10.3730 C.ar  357  INH357      0.0667
      4  C3        19.3210    3.3210    9.9400 C.2   357  INH357      0.3867
      5  O1        23.4860    5.6140    8.8570 O.3   357  INH357     -0.5049
      6  H2        23.1970    5.4600    7.9550 H     357  INH357      0.2922
      7  C4        22.9260    5.2970   11.1790 C.ar  357  INH357      0.0666
      8  C5        20.8630    4.1790   11.7260 C.ar  357  INH357     -0.0457
      9  H3        20.1680    3.8110   12.4660 H     357  INH357      0.0626
     10  C6        21.4760    4.5010    9.4210 C.ar  357  INH357     -0.0042
     11  H4        21.2620    4.3800    8.3690 H     357  INH357      0.0663
     12  C7        22.6430    5.1430    9.8210 C.ar  357  INH357      0.1382
     13  O2        19.0860    3.1880    8.7180 O.co2 357  INH357     -0.2406
     14  O3        18.5370    2.8880   10.8140 O.co2 357  INH357     -0.2406
     15  N1        24.0540    5.9210   11.5940 N.pl3 357  INH357     -0.3552
     16  H5        24.7080    6.2850   10.9160 H     357  INH357      0.1424
     17  H6        24.2410    6.0220   12.5810 H     357  INH357      0.1424
@<TRIPOS>BOND
     1     1     8   ar
     2     1     7   ar
     3     1     2    1
     4     3    10   ar
     5     3     8   ar
     6     3     4    1
     7     4    14   ar
     8     4    13   ar
     9     5    12    1
    10     5     6    1
    11     7    15    1
    12     7    12   ar
    13     8     9    1
    14    10    12   ar
    15    10    11    1
    16    15    17    1
    17    15    16    1
