@<TRIPOS>MOLECULE
/tmp/ewbell/vina_2hdr_2hdr_lig/vina/vina2.pdbqt
 15 15 0 0 0
SMALL
GASTEIGER

@<TRIPOS>ATOM
      1  C1        21.8960    3.6580   11.2330 C.ar  357  INH357      0.0330
      2  C2        22.0880    4.8220    9.1230 C.ar  357  INH357      0.0400
      3  C4        22.9610    4.3990   11.7400 C.ar  357  INH357      0.0590
      4  C5        21.4620    3.8750    9.9290 C.ar  357  INH357      0.0210
      5  C6        23.1500    5.5660    9.6360 C.ar  357  INH357      0.0570
      6  C7        23.5840    5.3580   10.9400 C.ar  357  INH357      0.0920
      7  C3        21.6180    5.0490    7.7140 C.2   357  INH357      0.1760
      8  O3        20.5480    5.6700    7.5250 O.2   357  INH357     -0.6460
      9  O2        22.3010    4.6060    6.7640 O.3   357  INH357     -0.7730
     10  H         22.3080    3.6880    6.5800 H     357  INH357      0.1670
     11  O1        24.6210    6.1140   11.4060 O.3   357  INH357     -0.3580
     12  H2        25.2050    6.4620   10.7280 H     357  INH357      0.2170
     13  N1        23.3640    4.1800   13.0150 N.pl3 357  INH357     -0.3970
     14  H6        23.1050    3.3260   13.4860 H     357  INH357      0.1560
     15  H5        23.9240    4.8710   13.4930 H     357  INH357      0.1560
@<TRIPOS>BOND
     1    10     9    1
     2     9     7    1
     3     8     7    2
     4     7     2    1
     5     2     5   ar
     6     2     4   ar
     7     5     6   ar
     8     4     1   ar
     9    12    11    1
    10     6    11    1
    11     6     3   ar
    12     1     3   ar
    13     3    13    1
    14    13    14    1
    15    13    15    1
