@<TRIPOS>MOLECULE
/tmp/ewbell/vina_2hdr_2hdr_lig/vina/vina4.pdbqt
 15 15 0 0 0
SMALL
GASTEIGER

@<TRIPOS>ATOM
      1  C1        25.5310    7.9910   16.8040 C.ar  357  INH357      0.0330
      2  C2        25.1140    6.0510   18.1830 C.ar  357  INH357      0.0400
      3  C4        24.7220    7.4560   15.8030 C.ar  357  INH357      0.0590
      4  C5        25.7210    7.2880   17.9900 C.ar  357  INH357      0.0210
      5  C6        24.3010    5.5200   17.1830 C.ar  357  INH357      0.0570
      6  C7        24.1030    6.2200   15.9980 C.ar  357  INH357      0.0920
      7  C3        25.3270    5.2940   19.4640 C.2   357  INH357      0.1760
      8  O3        24.3360    4.7990   20.0470 O.2   357  INH357     -0.6460
      9  O2        26.4860    5.1830   19.9220 O.3   357  INH357     -0.7730
     10  H         26.6820    5.4960   20.7830 H     357  INH357      0.1670
     11  O1        23.2920    5.6690   15.0490 O.3   357  INH357     -0.3580
     12  H2        23.3360    6.0870   14.1860 H     357  INH357      0.2170
     13  N1        24.5420    8.1580   14.6600 N.pl3 357  INH357     -0.3970
     14  H6        24.8080    7.7550   13.7730 H     357  INH357      0.1560
     15  H5        24.1420    9.0850   14.6940 H     357  INH357      0.1560
@<TRIPOS>BOND
     1    14    13    1
     2    12    11    1
     3    13    15    1
     4    13     3    1
     5    11     6    1
     6     3     6   ar
     7     3     1   ar
     8     6     5   ar
     9     1     4   ar
    10     5     2   ar
    11     4     2   ar
    12     2     7    1
    13     7     9    1
    14     7     8    2
    15     9    10    1
