@<TRIPOS>MOLECULE
/tmp/ewbell/vina_2hdr_2hdr_lig/vina/vina1.pdbqt
 15 15 0 0 0
SMALL
GASTEIGER

@<TRIPOS>ATOM
      1  C1        22.4150    3.5090   11.6190 C.ar  357  INH357      0.0330
      2  C2        24.1660    4.7020   12.7830 C.ar  357  INH357      0.0400
      3  C4        22.4910    4.4210   10.5680 C.ar  357  INH357      0.0590
      4  C5        23.2550    3.6510   12.7190 C.ar  357  INH357      0.0210
      5  C6        24.2420    5.6100   11.7280 C.ar  357  INH357      0.0570
      6  C7        23.4100    5.4700   10.6230 C.ar  357  INH357      0.0920
      7  C3        25.0660    4.8530   13.9760 C.2   357  INH357      0.1760
      8  O3        26.3030    4.9220   13.7970 O.2   357  INH357     -0.6460
      9  O2        24.5610    4.9000   15.1200 O.3   357  INH357     -0.7730
     10  H         25.0660    5.2160   15.8430 H     357  INH357      0.1670
     11  O1        23.5240    6.3750    9.6070 O.3   357  INH357     -0.3580
     12  H2        23.7700    7.2610    9.8800 H     357  INH357      0.2170
     13  N1        21.6720    4.2620    9.5010 N.pl3 357  INH357     -0.3970
     14  H6        20.6780    4.1540    9.6400 H     357  INH357      0.1560
     15  H5        22.0560    4.2500    8.5670 H     357  INH357      0.1560
@<TRIPOS>BOND
     1    15    13    1
     2    13    14    1
     3    13     3    1
     4    11    12    1
     5    11     6    1
     6     3     6   ar
     7     3     1   ar
     8     6     5   ar
     9     1     4   ar
    10     5     2   ar
    11     4     2   ar
    12     2     7    1
    13     8     7    2
    14     7     9    1
    15     9    10    1
