@<TRIPOS>MOLECULE
/tmp/ewbell/vina_2hdr_2hdr_lig/vina/vina5.pdbqt
 15 15 0 0 0
SMALL
GASTEIGER

@<TRIPOS>ATOM
      1  C1        26.6080   10.7380   20.0080 C.ar  357  INH357      0.0330
      2  C2        28.3300   11.6000   21.4690 C.ar  357  INH357      0.0400
      3  C4        26.0370   12.0060   19.9310 C.ar  357  INH357      0.0590
      4  C5        27.7540   10.5410   20.7740 C.ar  357  INH357      0.0210
      5  C6        27.7590   12.8690   21.3860 C.ar  357  INH357      0.0570
      6  C7        26.6180   13.0730   20.6180 C.ar  357  INH357      0.0920
      7  C3        29.5630   11.3800   22.2980 C.2   357  INH357      0.1760
      8  O3        29.9350   12.2820   23.0830 O.2   357  INH357     -0.6460
      9  O2        30.1940   10.3060   22.1810 O.3   357  INH357     -0.7730
     10  H         31.0970   10.3170   21.9330 H     357  INH357      0.1670
     11  O1        26.0960   14.3330   20.5550 O.3   357  INH357     -0.3580
     12  H2        26.3210   14.9020   21.2940 H     357  INH357      0.2170
     13  N1        24.9270   12.1800   19.1740 N.pl3 357  INH357     -0.3970
     14  H6        24.9400   12.8300   18.4010 H     357  INH357      0.1560
     15  H5        24.0870   11.6600   19.3820 H     357  INH357      0.1560
@<TRIPOS>BOND
     1    14    13    1
     2    13    15    1
     3    13     3    1
     4     3     1   ar
     5     3     6   ar
     6     1     4   ar
     7    11     6    1
     8    11    12    1
     9     6     5   ar
    10     4     2   ar
    11     5     2   ar
    12     2     7    1
    13    10     9    1
    14     9     7    1
    15     7     8    2
