@<TRIPOS>MOLECULE
/tmp/ewbell/vina_2hdr_2hdr_lig/vina/vina3.pdbqt
 15 15 0 0 0
SMALL
GASTEIGER

@<TRIPOS>ATOM
      1  C1        22.7850    5.3190    9.7230 C.ar  357  INH357      0.0330
      2  C2        23.4030    4.7680   11.9940 C.ar  357  INH357      0.0400
      3  C4        21.6680    4.4920    9.8250 C.ar  357  INH357      0.0590
      4  C5        23.6440    5.4560   10.8090 C.ar  357  INH357      0.0210
      5  C6        22.2820    3.9450   12.0940 C.ar  357  INH357      0.0570
      6  C7        21.4150    3.8080   11.0150 C.ar  357  INH357      0.0920
      7  C3        24.3370    4.9160   13.1610 C.2   357  INH357      0.1760
      8  O3        24.8870    6.0230   13.3600 O.2   357  INH357     -0.6460
      9  O2        24.5510    3.9300   13.9020 O.3   357  INH357     -0.7730
     10  H         24.2060    3.0900   13.6750 H     357  INH357      0.1670
     11  O1        20.3250    3.0000   11.1590 O.3   357  INH357     -0.3580
     12  H2        20.2650    2.5460   12.0020 H     357  INH357      0.2170
     13  N1        20.8380    4.3770    8.7610 N.pl3 357  INH357     -0.3970
     14  H6        21.1360    3.8710    7.9400 H     357  INH357      0.1560
     15  H5        19.9200    4.7990    8.7890 H     357  INH357      0.1560
@<TRIPOS>BOND
     1    14    13    1
     2    13    15    1
     3    13     3    1
     4     1     3   ar
     5     1     4   ar
     6     3     6   ar
     7     4     2   ar
     8     6    11    1
     9     6     5   ar
    10    11    12    1
    11     2     5   ar
    12     2     7    1
    13     7     8    2
    14     7     9    1
    15    10     9    1
