@<TRIPOS>MOLECULE
/tmp/ewbell/vina_2a3c_2a3c_lig/vina/vina5.pdbqt
 21 22 0 0 0
SMALL
GASTEIGER

@<TRIPOS>ATOM
      1  N1        93.6030   68.1670   -7.1010 N.ar  398  INH398     -0.2640
      2  C7        92.3070   68.0690   -6.5750 C.ar  398  INH398      0.2820
      3  O2        91.4130   67.5830   -7.2680 O.2   398  INH398     -0.2650
      4  C8        92.0380   68.4900   -5.2760 C.ar  398  INH398      0.1490
      5  N2        90.9520   68.5040   -4.5060 N.pl3 398  INH398     -0.3400
      6  C9        89.5890   68.0880   -4.9110 C.3   398  INH398      0.1570
      7  C10       91.2520   68.9880   -3.3040 C.3   398  INH398      0.1840
      8  N3        92.5450   69.3000   -3.2960 N.pl3 398  INH398     -0.3360
      9  H3        93.0570   69.6950   -2.5080 H     398  INH398      0.1680
     10  C11       93.0610   69.0110   -4.4900 C.ar  398  INH398      0.1450
     11  N4        94.3600   69.1180   -5.0030 N.ar  398  INH398     -0.2870
     12  C12       95.4350   69.7040   -4.1700 C.3   398  INH398      0.1630
     13  C13       94.6350   68.6900   -6.3090 C.ar  398  INH398      0.3320
     14  O3        95.7830   68.7430   -6.7470 O.2   398  INH398     -0.2460
     15  C6        93.8690   67.7890   -8.5090 C.3   398  INH398      0.1370
     16  C5        94.2450   66.3120   -8.6650 C.3   398  INH398      0.0210
     17  C4        95.4840   66.1890   -9.5540 C.3   398  INH398      0.0090
     18  C3        96.7960   66.1230   -8.7690 C.3   398  INH398      0.0780
     19  C2        97.8390   67.1420   -9.2360 C.2   398  INH398      0.1230
     20  C1        97.3610   68.4420   -9.8840 C.3   398  INH398      0.0910
     21  O1        99.0450   66.9230   -9.1200 O.2   398  INH398     -0.2980
@<TRIPOS>BOND
     1    20    19    1
     2    17    18    1
     3    17    16    1
     4    19    21    2
     5    19    18    1
     6    16    15    1
     7    15     1    1
     8     3     2    2
     9     1     2   ar
    10     1    13   ar
    11    14    13    2
    12     2     4   ar
    13    13    11   ar
    14     4     5    1
    15     4    10   ar
    16    11    10   ar
    17    11    12    1
    18     6     5    1
    19     5     7    1
    20    10     8    1
    21     7     8    1
    22     8     9    1
