@<TRIPOS>MOLECULE
/tmp/ewbell/vina_2a3c_2a3c_lig/vina/vina4.pdbqt
 21 22 0 0 0
SMALL
GASTEIGER

@<TRIPOS>ATOM
      1  N1        94.0030   68.1610   -7.4890 N.ar  398  INH398     -0.2640
      2  C7        94.8430   68.7140   -6.5120 C.ar  398  INH398      0.2820
      3  O2        96.0190   68.9430   -6.7910 O.2   398  INH398     -0.2650
      4  C8        94.3480   69.0250   -5.2490 C.ar  398  INH398      0.1490
      5  N2        94.8700   69.5650   -4.1500 N.pl3 398  INH398     -0.3400
      6  C9        96.2860   69.9510   -3.9540 C.3   398  INH398      0.1570
      7  C10       93.9350   69.6810   -3.2110 C.3   398  INH398      0.1840
      8  N3        92.7950   69.2030   -3.7040 N.pl3 398  INH398     -0.3360
      9  H3        91.9040   69.1620   -3.2090 H     398  INH398      0.1680
     10  C11       93.0090   68.7890   -4.9510 C.ar  398  INH398      0.1450
     11  N4        92.1590   68.2350   -5.9160 N.ar  398  INH398     -0.2870
     12  C12       90.7440   67.9570   -5.5800 C.3   398  INH398      0.1630
     13  C13       92.6540   67.9250   -7.1910 C.ar  398  INH398      0.3320
     14  O3        91.8990   67.4780   -8.0530 O.2   398  INH398     -0.2460
     15  C6        94.5510   67.7600   -8.8070 C.3   398  INH398      0.1370
     16  C5        95.1910   66.3690   -8.7840 C.3   398  INH398      0.0210
     17  C4        96.5910   66.4390   -9.3960 C.3   398  INH398      0.0090
     18  C3        97.5980   65.4980   -8.7300 C.3   398  INH398      0.0780
     19  C2        98.1590   66.0380   -7.4110 C.2   398  INH398      0.1230
     20  C1        98.0500   65.1730   -6.1550 C.3   398  INH398      0.0910
     21  O1        98.6700   67.1550   -7.3440 O.2   398  INH398     -0.2980
@<TRIPOS>BOND
     1    17    16    1
     2    17    18    1
     3    15    16    1
     4    15     1    1
     5    18    19    1
     6    14    13    2
     7     1    13   ar
     8     1     2   ar
     9    19    21    2
    10    19    20    1
    11    13    11   ar
    12     3     2    2
    13     2     4   ar
    14    11    12    1
    15    11    10   ar
    16     4    10   ar
    17     4     5    1
    18    10     8    1
    19     5     6    1
    20     5     7    1
    21     8     7    1
    22     8     9    1
