@<TRIPOS>MOLECULE
/tmp/ewbell/vina_2a3c_2a3c_lig/vina/vina1.pdbqt
 21 22 0 0 0
SMALL
GASTEIGER

@<TRIPOS>ATOM
      1  N1        93.5770   68.0930   -7.2540 N.ar  398  INH398     -0.2640
      2  C7        92.3280   68.0590   -6.6170 C.ar  398  INH398      0.2820
      3  O2        91.3610   67.5880   -7.2160 O.2   398  INH398     -0.2650
      4  C8        92.1860   68.5290   -5.3150 C.ar  398  INH398      0.1490
      5  N2        91.1700   68.6060   -4.4570 N.pl3 398  INH398     -0.3400
      6  C9        89.7650   68.2310   -4.7320 C.3   398  INH398      0.1570
      7  C10       91.5890   69.1140   -3.3010 C.3   398  INH398      0.1840
      8  N3        92.8890   69.3770   -3.4130 N.pl3 398  INH398     -0.3360
      9  H3        93.4800   69.7750   -2.6830 H     398  INH398      0.1680
     10  C11       93.2900   69.0330   -4.6350 C.ar  398  INH398      0.1450
     11  N4        94.5430   69.0750   -5.2590 N.ar  398  INH398     -0.2870
     12  C12       95.7060   69.6450   -4.5400 C.3   398  INH398      0.1630
     13  C13       94.6900   68.5990   -6.5690 C.ar  398  INH398      0.3320
     14  O3        95.7980   68.5960   -7.1040 O.2   398  INH398     -0.2460
     15  C6        93.7090   67.6630   -8.6660 C.3   398  INH398      0.1370
     16  C5        94.1410   66.2000   -8.8030 C.3   398  INH398      0.0210
     17  C4        93.4350   65.5670  -10.0030 C.3   398  INH398      0.0090
     18  C3        91.9700   65.9880  -10.1440 C.3   398  INH398      0.0780
     19  C2        91.1520   65.0600  -11.0460 C.2   398  INH398      0.1230
     20  C1        91.8200   63.8090  -11.6160 C.3   398  INH398      0.0910
     21  O1        89.9830   65.3170  -11.3350 O.2   398  INH398     -0.2980
@<TRIPOS>BOND
     1    20    19    1
     2    21    19    2
     3    19    18    1
     4    18    17    1
     5    17    16    1
     6    16    15    1
     7    15     1    1
     8     1     2   ar
     9     1    13   ar
    10     3     2    2
    11    14    13    2
    12     2     4   ar
    13    13    11   ar
    14     4    10   ar
    15     4     5    1
    16    11    10   ar
    17    11    12    1
    18     6     5    1
    19    10     8    1
    20     5     7    1
    21     8     7    1
    22     8     9    1
