@<TRIPOS>MOLECULE
/tmp/ewbell/vina_2a3c_2a3c_lig/vina/vina2.pdbqt
 21 22 0 0 0
SMALL
GASTEIGER

@<TRIPOS>ATOM
      1  N1        95.3250   68.5080   -7.1410 N.ar  398  INH398     -0.2640
      2  C7        94.6090   68.8120   -5.9750 C.ar  398  INH398      0.2820
      3  O2        95.1900   69.3670   -5.0420 O.2   398  INH398     -0.2650
      4  C8        93.2530   68.5150   -5.8800 C.ar  398  INH398      0.1490
      5  N2        92.3210   68.6970   -4.9470 N.pl3 398  INH398     -0.3400
      6  C9        92.5380   69.2630   -3.5960 C.3   398  INH398      0.1570
      7  C10       91.1460   68.2560   -5.3850 C.3   398  INH398      0.1840
      8  N3        91.3180   67.7750   -6.6140 N.pl3 398  INH398     -0.3360
      9  H3        90.5900   67.3670   -7.2000 H     398  INH398      0.1680
     10  C11       92.5980   67.9150   -6.9510 C.ar  398  INH398      0.1450
     11  N4        93.3010   67.6030   -8.1220 N.ar  398  INH398     -0.2870
     12  C12       92.6040   66.9330   -9.2430 C.3   398  INH398      0.1630
     13  C13       94.6660   67.9050   -8.2220 C.ar  398  INH398      0.3320
     14  O3        95.2750   67.6700   -9.2640 O.2   398  INH398     -0.2460
     15  C6        96.7850   68.7560   -7.2100 C.3   398  INH398      0.1370
     16  C5        97.6130   67.5300   -6.8100 C.3   398  INH398      0.0210
     17  C4        98.4680   67.8670   -5.5870 C.3   398  INH398      0.0090
     18  C3        99.7210   66.9960   -5.4570 C.3   398  INH398      0.0780
     19  C2        99.8840   66.3630   -4.0720 C.2   398  INH398      0.1230
     20  C1        99.8140   67.2630   -2.8380 C.3   398  INH398      0.0910
     21  O1       100.0920   65.1570   -3.9410 O.2   398  INH398     -0.2980
@<TRIPOS>BOND
     1    14    13    2
     2    12    11    1
     3    13    11   ar
     4    13     1   ar
     5    11    10   ar
     6    15     1    1
     7    15    16    1
     8     9     8    1
     9     1     2   ar
    10    10     8    1
    11    10     4   ar
    12    16    17    1
    13     8     7    1
    14     2     4   ar
    15     2     3    2
    16     4     5    1
    17    17    18    1
    18    18    19    1
    19     7     5    1
    20     5     6    1
    21    19    21    2
    22    19    20    1
