@<TRIPOS>MOLECULE
/tmp/ewbell/vina_2a3c_2a3c_lig/vina/vina3.pdbqt
 21 22 0 0 0
SMALL
GASTEIGER

@<TRIPOS>ATOM
      1  N1        93.6250   68.1690   -7.1730 N.ar  398  INH398     -0.2640
      2  C7        94.9360   68.5550   -6.8630 C.ar  398  INH398      0.2820
      3  O2        95.8110   68.4540   -7.7240 O.2   398  INH398     -0.2650
      4  C8        95.2440   69.0700   -5.6080 C.ar  398  INH398      0.1490
      5  N2        96.3530   69.5350   -5.0360 N.pl3 398  INH398     -0.3400
      6  C9        97.7040   69.5560   -5.6420 C.3   398  INH398      0.1570
      7  C10       96.0880   69.9530   -3.8020 C.3   398  INH398      0.1840
      8  N3        94.7950   69.7510   -3.5670 N.pl3 398  INH398     -0.3360
      9  H3        94.3060   69.9740   -2.7000 H     398  INH398      0.1680
     10  C11       94.2430   69.2090   -4.6510 C.ar  398  INH398      0.1450
     11  N4        92.9290   68.8250   -4.9450 N.ar  398  INH398     -0.2870
     12  C12       91.8780   68.9440   -3.9090 C.3   398  INH398      0.1630
     13  C13       92.6150   68.3090   -6.2100 C.ar  398  INH398      0.3320
     14  O3        91.4540   68.0110   -6.4840 O.2   398  INH398     -0.2460
     15  C6        93.3160   67.5490   -8.4840 C.3   398  INH398      0.1370
     16  C5        93.6060   66.0450   -8.5100 C.3   398  INH398      0.0210
     17  C4        93.8750   65.6010   -9.9490 C.3   398  INH398      0.0090
     18  C3        92.6840   64.8970  -10.6060 C.3   398  INH398      0.0780
     19  C2        93.0830   63.6910  -11.4600 C.2   398  INH398      0.1230
     20  C1        94.5650   63.4480  -11.7470 C.3   398  INH398      0.0910
     21  O1        92.2350   62.9350  -11.9350 O.2   398  INH398     -0.2980
@<TRIPOS>BOND
     1    21    19    2
     2    20    19    1
     3    19    18    1
     4    18    17    1
     5    17    16    1
     6    16    15    1
     7    15     1    1
     8     3     2    2
     9     1     2   ar
    10     1    13   ar
    11     2     4   ar
    12    14    13    2
    13    13    11   ar
    14     6     5    1
    15     4     5    1
    16     4    10   ar
    17     5     7    1
    18    11    10   ar
    19    11    12    1
    20    10     8    1
    21     7     8    1
    22     8     9    1
