@<TRIPOS>MOLECULE
./ligand/1ax2_lig.pdb
 51 52 0 0 0
SMALL
GASTEIGER

@<TRIPOS>ATOM
      1  C1        22.1420   -1.2760   37.9780 C.3   487  INH487      0.1776
      2  C2        21.3360   -2.5720   38.0240 C.3   487  INH487      0.1021
      3  C3        20.1530   -2.5140   37.0560 C.3   487  INH487      0.1068
      4  C4        19.3240   -1.2470   37.3080 C.3   487  INH487      0.1177
      5  C5        20.2510   -0.0290   37.2680 C.3   487  INH487      0.1133
      6  C6        19.5530    1.2890   37.5310 C.3   487  INH487      0.0730
      7  C7        22.6230   -4.5170   38.6240 C.2   487  INH487      0.2104
      8  C8        23.5030   -5.6720   38.1720 C.3   487  INH487      0.0122
      9  N1        22.1850   -3.6950   37.6770 N.am  487  INH487     -0.3053
     10  O1        22.6700   -1.1020   36.7080 O.3   487  INH487     -0.3654
     11  O2        19.3470   -3.6700   37.2350 O.3   487  INH487     -0.3871
     12  O3        18.3090   -1.1080   36.2890 O.3   487  INH487     -0.3402
     13  O4        21.2880   -0.1660   38.2550 O.3   487  INH487     -0.3414
     14  O5        18.6830    1.1950   38.6480 O.3   487  INH487     -0.3924
     15  O6        22.3490   -4.3740   39.8210 O.2   487  INH487     -0.2761
     16  C9        17.0120   -1.4920   36.6080 C.3   487  INH487      0.1884
     17  C10       16.0380   -0.8430   35.6150 C.3   487  INH487      0.1341
     18  C11       14.6200   -1.3930   35.8020 C.3   487  INH487      0.1141
     19  C12       14.6500   -2.9150   35.7080 C.3   487  INH487      0.1119
     20  C13       15.6260   -3.4420   36.7510 C.3   487  INH487      0.1130
     21  C14       15.7380   -4.9520   36.7380 C.3   487  INH487      0.0730
     22  O7        16.0370    0.5660   35.7960 O.3   487  INH487     -0.3841
     23  O8        13.7610   -0.8680   34.8000 O.3   487  INH487     -0.3864
     24  O9        15.0740   -3.3110   34.4070 O.3   487  INH487     -0.3865
     25  O10       16.9460   -2.9200   36.5020 O.3   487  INH487     -0.3405
     26  O11       16.7050   -5.3870   37.6770 O.3   487  INH487     -0.3924
     27  H1        22.9530   -1.3190   38.7200 H     487  INH487      0.0928
     28  H2        20.9530   -2.7140   39.0450 H     487  INH487      0.0575
     29  H3        20.5320   -2.4940   36.0230 H     487  INH487      0.0640
     30  H4        18.8440   -1.3140   38.2950 H     487  INH487      0.0650
     31  H5        20.7070    0.0140   36.2680 H     487  INH487      0.0647
     32  H6        18.9680    1.5680   36.6430 H     487  INH487      0.0584
     33  H7        20.3100    2.0620   37.7300 H     487  INH487      0.0584
     34  H8        23.7960   -6.2730   39.0450 H     487  INH487      0.0322
     35  H9        24.4040   -5.2760   37.6800 H     487  INH487      0.0322
     36  H10       22.9450   -6.3020   37.4640 H     487  INH487      0.0322
     37  H11       22.4410   -3.8510   36.7230 H     487  INH487      0.1492
     38  H12       23.1710   -0.2950   36.6810 H     487  INH487      0.2125
     39  H13       18.6100   -3.6390   36.6360 H     487  INH487      0.2100
     40  H14       18.2590    2.0330   38.7910 H     487  INH487      0.2095
     41  H15       16.7630   -1.1780   37.6320 H     487  INH487      0.0938
     42  H16       16.3720   -1.0710   34.5920 H     487  INH487      0.0671
     43  H17       14.2440   -1.0970   36.7920 H     487  INH487      0.0648
     44  H18       13.6450   -3.3180   35.9030 H     487  INH487      0.0647
     45  H19       15.2830   -3.1160   37.7440 H     487  INH487      0.0647
     46  H20       16.0350   -5.2840   35.7320 H     487  INH487      0.0584
     47  H21       14.7620   -5.3890   36.9950 H     487  INH487      0.0584
     48  H22       16.9180    0.9010   35.6790 H     487  INH487      0.2101
     49  H23       12.8840   -1.2130   34.9220 H     487  INH487      0.2100
     50  H24       14.4620   -2.9800   33.7600 H     487  INH487      0.2100
     51  H25       16.4520   -5.1020   38.5470 H     487  INH487      0.2095
@<TRIPOS>BOND
     1     1     2    1
     2     1    27    1
     3     1    13    1
     4     1    10    1
     5     2     9    1
     6     2    28    1
     7     2     3    1
     8     3     4    1
     9     3    29    1
    10     3    11    1
    11     4     5    1
    12     4    30    1
    13     4    12    1
    14     5    13    1
    15     5    31    1
    16     5     6    1
    17     6    33    1
    18     6    32    1
    19     6    14    1
    20     7    15    2
    21     7     9   am
    22     7     8    1
    23     8    36    1
    24     8    35    1
    25     8    34    1
    26     9    37    1
    27    10    38    1
    28    11    39    1
    29    12    16    1
    30    14    40    1
    31    16    41    1
    32    16    25    1
    33    16    17    1
    34    17    42    1
    35    17    22    1
    36    17    18    1
    37    18    43    1
    38    18    23    1
    39    18    19    1
    40    19    44    1
    41    19    24    1
    42    19    20    1
    43    20    45    1
    44    20    25    1
    45    20    21    1
    46    21    47    1
    47    21    46    1
    48    21    26    1
    49    22    48    1
    50    23    49    1
    51    24    50    1
    52    26    51    1
