@<TRIPOS>MOLECULE
/tmp/ewbell/vina_1ax2_1ax2_lig/vina/vina2.pdbqt
 34 35 0 0 0
SMALL
GASTEIGER

@<TRIPOS>ATOM
      1  C1        15.4650   -2.4390   35.1880 C.3   487  INH487      0.2820
      2  C2        16.2820   -2.3930   36.4770 C.3   487  INH487      0.1700
      3  C3        16.0350   -1.0880   37.2340 C.3   487  INH487      0.1770
      4  C4        16.2560    0.1140   36.3050 C.3   487  INH487      0.1860
      5  C5        15.4100   -0.0700   35.0430 C.3   487  INH487      0.1790
      6  O4        15.7670   -1.2980   34.3840 O.3   487  INH487     -0.3490
      7  O3        15.8620    1.3340   36.9710 O.3   487  INH487     -0.3480
      8  C9        16.8520    2.2670   37.2560 C.3   487  INH487      0.2920
      9  O10       17.4250    1.9150   38.5220 O.3   487  INH487     -0.3480
     10  C13       18.4300    2.8480   38.9640 C.3   487  INH487      0.1790
     11  C12       17.8130    4.2240   39.1700 C.3   487  INH487      0.1800
     12  C11       17.2320    4.6950   37.8400 C.3   487  INH487      0.1830
     13  C10       16.2190    3.6630   37.3330 C.3   487  INH487      0.2040
     14  C14       19.0330    2.2810   40.2330 C.3   487  INH487      0.1980
     15  O11       18.0530    1.5790   40.9770 O.3   487  INH487     -0.3980
     16  H25       17.5630    2.1910   41.5120 H     487  INH487      0.2090
     17  O9        16.7810    4.1480   40.1480 O.3   487  INH487     -0.3900
     18  H24       16.1720    4.8670   40.0240 H     487  INH487      0.2100
     19  O8        16.5960    5.9530   38.0140 O.3   487  INH487     -0.3900
     20  H23       17.2490    6.6430   37.9990 H     487  INH487      0.2100
     21  O7        15.7430    4.0450   36.0500 O.3   487  INH487     -0.3880
     22  H22       15.0040    3.4980   35.8110 H     487  INH487      0.2100
     23  O2        16.9190   -1.0180   38.3440 O.3   487  INH487     -0.3910
     24  H13       16.5870   -1.5600   39.0500 H     487  INH487      0.2100
     25  C6        15.5620    1.0430   34.0280 C.3   487  INH487      0.1980
     26  O5        14.5440    2.0210   34.1820 O.3   487  INH487     -0.3980
     27  H14       14.6640    2.7060   33.5350 H     487  INH487      0.2090
     28  N1        15.9290   -3.5150   37.3260 N.am  487  INH487     -0.3490
     29  C7        16.4570   -4.7120   37.1020 C.2   487  INH487      0.2140
     30  O6        17.2560   -4.9370   36.1840 O.2   487  INH487     -0.2740
     31  C8        16.0290   -5.8340   38.0370 C.3   487  INH487      0.1170
     32  H11       15.2880   -3.3860   38.0830 H     487  INH487      0.1630
     33  O1        14.1130   -2.4010   35.4930 O.3   487  INH487     -0.3690
     34  H12       13.9900   -2.6120   36.4110 H     487  INH487      0.2120
@<TRIPOS>BOND
     1    27    26    1
     2    25    26    1
     3    25     5    1
     4     6     5    1
     5     6     1    1
     6     5     4    1
     7     1    33    1
     8     1     2    1
     9    33    34    1
    10    22    21    1
    11    21    13    1
    12    30    29    2
    13     4     7    1
    14     4     3    1
    15     2     3    1
    16     2    28    1
    17     7     8    1
    18    29    28   am
    19    29    31    1
    20     3    23    1
    21     8    13    1
    22     8     9    1
    23    28    32    1
    24    13    12    1
    25    12    19    1
    26    12    11    1
    27    20    19    1
    28    23    24    1
    29     9    10    1
    30    10    11    1
    31    10    14    1
    32    11    17    1
    33    18    17    1
    34    14    15    1
    35    15    16    1
