@<TRIPOS>MOLECULE
/tmp/ewbell/vina_1ax2_1ax2_lig/vina/vina1.pdbqt
 34 35 0 0 0
SMALL
GASTEIGER

@<TRIPOS>ATOM
      1  C1        21.9380   -1.5280   38.7170 C.3   487  INH487      0.2820
      2  C2        21.2780   -2.8030   38.1970 C.3   487  INH487      0.1700
      3  C3        20.1780   -2.4770   37.1860 C.3   487  INH487      0.1770
      4  C4        19.1970   -1.4580   37.7820 C.3   487  INH487      0.1860
      5  C5        19.9840   -0.2480   38.2930 C.3   487  INH487      0.1790
      6  O4        20.9470   -0.6650   39.2760 O.3   487  INH487     -0.3490
      7  O3        18.2580   -1.0250   36.7730 O.3   487  INH487     -0.3480
      8  C9        16.9380   -1.4450   36.8900 C.3   487  INH487      0.2920
      9  O10       16.9050   -2.8490   36.6060 O.3   487  INH487     -0.3480
     10  C13       15.5730   -3.3980   36.6350 C.3   487  INH487      0.1790
     11  C12       14.7160   -2.7480   35.5570 C.3   487  INH487      0.1800
     12  C11       14.6540   -1.2490   35.8300 C.3   487  INH487      0.1830
     13  C10       16.0760   -0.6800   35.8770 C.3   487  INH487      0.2040
     14  C14       15.7080   -4.8960   36.4530 C.3   487  INH487      0.1980
     15  O11       16.9730   -5.2170   35.9010 O.3   487  INH487     -0.3980
     16  H25       17.5090   -4.4340   35.8610 H     487  INH487      0.2090
     17  O9        15.2930   -2.9830   34.2760 O.3   487  INH487     -0.3900
     18  H24       14.6270   -2.8850   33.6050 H     487  INH487      0.2100
     19  O8        13.9090   -0.6060   34.8060 O.3   487  INH487     -0.3900
     20  H23       13.3590    0.0680   35.1900 H     487  INH487      0.2100
     21  O7        16.0340    0.6960   36.2250 O.3   487  INH487     -0.3880
     22  H22       16.0880    1.2240   35.4370 H     487  INH487      0.2100
     23  O2        19.4930   -3.6720   36.8410 O.3   487  INH487     -0.3910
     24  H13       20.0940   -4.2710   36.4140 H     487  INH487      0.2100
     25  C6        19.1260    0.8240   38.9320 C.3   487  INH487      0.1980
     26  O5        18.4310    1.5780   37.9510 O.3   487  INH487     -0.3980
     27  H14       17.5800    1.8290   38.2900 H     487  INH487      0.2090
     28  N1        22.2710   -3.6520   37.5680 N.am  487  INH487     -0.3490
     29  C7        22.7430   -4.7150   38.2100 C.2   487  INH487      0.2140
     30  O6        22.3760   -5.0340   39.3470 O.2   487  INH487     -0.2740
     31  C8        23.7850   -5.5480   37.4790 C.3   487  INH487      0.1170
     32  H11       22.6020   -3.4380   36.6490 H     487  INH487      0.1630
     33  O1        22.5440   -0.8570   37.6660 O.3   487  INH487     -0.3690
     34  H12       23.1490   -1.4410   37.2240 H     487  INH487      0.2120
@<TRIPOS>BOND
     1    18    17    1
     2    17    11    1
     3    19    20    1
     4    19    12    1
     5    22    21    1
     6    11    12    1
     7    11    10    1
     8    12    13    1
     9    16    15    1
    10    13    21    1
    11    13     8    1
    12    15    14    1
    13    24    23    1
    14    14    10    1
    15     9    10    1
    16     9     8    1
    17    32    28    1
    18     7     8    1
    19     7     4    1
    20    23     3    1
    21     3     4    1
    22     3     2    1
    23    34    33    1
    24    31    29    1
    25    28     2    1
    26    28    29   am
    27    33     1    1
    28     4     5    1
    29    26    27    1
    30    26    25    1
    31     2     1    1
    32    29    30    2
    33     5    25    1
    34     5     6    1
    35     1     6    1
