@<TRIPOS>MOLECULE
/tmp/ewbell/vina_1ax2_1ax2_lig/vina/vina4.pdbqt
 34 35 0 0 0
SMALL
GASTEIGER

@<TRIPOS>ATOM
      1  C1         5.4960   -8.3430   42.1720 C.3   487  INH487      0.2820
      2  C2         6.8490   -9.0350   42.0270 C.3   487  INH487      0.1700
      3  C3         6.6870  -10.4280   41.4170 C.3   487  INH487      0.1770
      4  C4         5.6470  -11.2350   42.2070 C.3   487  INH487      0.1860
      5  C5         4.3550  -10.4200   42.3080 C.3   487  INH487      0.1790
      6  O4         4.6160   -9.1580   42.9470 O.3   487  INH487     -0.3490
      7  O3         5.3730  -12.4840   41.5340 O.3   487  INH487     -0.3480
      8  C9         6.0690  -13.6130   41.9500 C.3   487  INH487      0.2920
      9  O10        7.0560  -13.1860   42.8990 O.3   487  INH487     -0.3480
     10  C13        7.8920  -14.2630   43.3640 C.3   487  INH487      0.1790
     11  C12        8.6780  -14.8550   42.2030 C.3   487  INH487      0.1800
     12  C11        7.6870  -15.3890   41.1730 C.3   487  INH487      0.1830
     13  C10        6.7480  -14.2600   40.7360 C.3   487  INH487      0.2040
     14  C14        8.7850  -13.6940   44.4470 C.3   487  INH487      0.1980
     15  O11        9.2550  -12.4100   44.0780 O.3   487  INH487     -0.3980
     16  H25        8.5290  -11.8870   43.7590 H     487  INH487      0.2090
     17  O9         9.4950  -13.8490   41.6120 O.3   487  INH487     -0.3900
     18  H24        8.9580  -13.0990   41.3820 H     487  INH487      0.2100
     19  O8         8.3920  -15.8950   40.0480 O.3   487  INH487     -0.3900
     20  H23        8.2240  -16.8270   39.9610 H     487  INH487      0.2100
     21  O7         5.7620  -14.7680   39.8490 O.3   487  INH487     -0.3880
     22  H22        5.5460  -15.6610   40.0940 H     487  INH487      0.2100
     23  O2         7.9410  -11.0940   41.4360 O.3   487  INH487     -0.3910
     24  H13        8.6120  -10.5180   41.0870 H     487  INH487      0.2100
     25  C6         3.2530  -11.1010   43.0930 C.3   487  INH487      0.1980
     26  O5         2.6900  -12.1770   42.3590 O.3   487  INH487     -0.3980
     27  H14        2.1920  -12.7330   42.9460 H     487  INH487      0.2090
     28  N1         7.7230   -8.2410   41.1860 N.am  487  INH487     -0.3490
     29  C7         8.5100   -7.3180   41.7260 C.2   487  INH487      0.2140
     30  O6         8.5440   -7.0860   42.9400 O.2   487  INH487     -0.2740
     31  C8         9.3910   -6.5280   40.7700 C.3   487  INH487      0.1170
     32  H11        7.7330   -8.3900   40.1960 H     487  INH487      0.1630
     33  O1         4.9260   -8.1690   40.9210 O.3   487  INH487     -0.3690
     34  H12        3.9810   -8.2460   40.9890 H     487  INH487      0.2120
@<TRIPOS>BOND
     1    21    22    1
     2    21    13    1
     3    20    19    1
     4    19    12    1
     5    32    28    1
     6    13    12    1
     7    13     8    1
     8    31    29    1
     9    33    34    1
    10    33     1    1
    11    24    23    1
    12    12    11    1
    13    28    29   am
    14    28     2    1
    15    18    17    1
    16     3    23    1
    17     3     2    1
    18     3     4    1
    19     7     8    1
    20     7     4    1
    21    17    11    1
    22    29    30    2
    23     8     9    1
    24     2     1    1
    25     1     6    1
    26    11    10    1
    27     4     5    1
    28     5     6    1
    29     5    25    1
    30    26    27    1
    31    26    25    1
    32     9    10    1
    33    10    14    1
    34    16    15    1
    35    15    14    1
