@<TRIPOS>MOLECULE
/tmp/ewbell/vina_1ax2_1ax2_lig/vina/vina3.pdbqt
 34 35 0 0 0
SMALL
GASTEIGER

@<TRIPOS>ATOM
      1  C1        19.3430   -0.9190   40.7100 C.3   487  INH487      0.2820
      2  C2        18.8590    0.4270   40.1760 C.3   487  INH487      0.1700
      3  C3        18.1250    0.2530   38.8450 C.3   487  INH487      0.1770
      4  C4        18.9940   -0.5400   37.8600 C.3   487  INH487      0.1860
      5  C5        19.4390   -1.8450   38.5270 C.3   487  INH487      0.1790
      6  O4        20.1660   -1.5590   39.7340 O.3   487  INH487     -0.3490
      7  O3        18.2380   -0.8470   36.6670 O.3   487  INH487     -0.3480
      8  C9        16.9360   -1.3080   36.8240 C.3   487  INH487      0.2920
      9  O10       16.9480   -2.7230   36.5960 O.3   487  INH487     -0.3480
     10  C13       15.6380   -3.3170   36.6700 C.3   487  INH487      0.1790
     11  C12       14.7410   -2.7410   35.5830 C.3   487  INH487      0.1800
     12  C11       14.6300   -1.2350   35.7980 C.3   487  INH487      0.1830
     13  C10       16.0310   -0.6150   35.7970 C.3   487  INH487      0.2040
     14  C14       15.8220   -4.8150   36.5450 C.3   487  INH487      0.1980
     15  O11       17.0720   -5.1120   35.9480 O.3   487  INH487     -0.3980
     16  H25       17.6180   -4.3350   35.9510 H     487  INH487      0.2090
     17  O9        15.3050   -3.0060   34.3020 O.3   487  INH487     -0.3900
     18  H24       15.3170   -3.9440   34.1490 H     487  INH487      0.2100
     19  O8        13.8460   -0.6600   34.7620 O.3   487  INH487     -0.3900
     20  H23       14.0040   -1.1260   33.9490 H     487  INH487      0.2100
     21  O7        15.9460    0.7720   36.0910 O.3   487  INH487     -0.3880
     22  H22       15.5020    1.2190   35.3800 H     487  INH487      0.2100
     23  O2        17.8210    1.5330   38.3090 O.3   487  INH487     -0.3910
     24  H13       18.5990    1.9010   37.9060 H     487  INH487      0.2100
     25  C6        20.3310   -2.7100   37.6610 C.3   487  INH487      0.1980
     26  O5        19.5720   -3.6660   36.9370 O.3   487  INH487     -0.3980
     27  H14       18.6490   -3.4500   37.0000 H     487  INH487      0.2090
     28  N1        17.9690    1.0490   41.1360 N.am  487  INH487     -0.3490
     29  C7        18.4320    1.9680   41.9760 C.2   487  INH487      0.2140
     30  O6        19.6130    2.3360   41.9900 O.2   487  INH487     -0.2740
     31  C8        17.4320    2.5660   42.9540 C.3   487  INH487      0.1170
     32  H11       17.0040    0.7870   41.1670 H     487  INH487      0.1630
     33  O1        18.2540   -1.7410   40.9560 O.3   487  INH487     -0.3690
     34  H12       17.9860   -1.6480   41.8630 H     487  INH487      0.2120
@<TRIPOS>BOND
     1    20    19    1
     2    18    17    1
     3    17    11    1
     4    19    12    1
     5    22    21    1
     6    11    12    1
     7    11    10    1
     8    13    12    1
     9    13    21    1
    10    13     8    1
    11    15    16    1
    12    15    14    1
    13    14    10    1
    14     9    10    1
    15     9     8    1
    16     7     8    1
    17     7     4    1
    18    26    27    1
    19    26    25    1
    20    25     5    1
    21     4     5    1
    22     4     3    1
    23    24    23    1
    24    23     3    1
    25     5     6    1
    26     3     2    1
    27     6     1    1
    28     2     1    1
    29     2    28    1
    30     1    33    1
    31    33    34    1
    32    28    32    1
    33    28    29   am
    34    29    30    2
    35    29    31    1
