@<TRIPOS>MOLECULE
/tmp/ewbell/vina_1ax2_1ax2_lig/vina/vina5.pdbqt
 34 35 0 0 0
SMALL
GASTEIGER

@<TRIPOS>ATOM
      1  C1         8.4050  -15.2890   43.9800 C.3   487  INH487      0.2820
      2  C2         9.0700  -13.9390   44.2390 C.3   487  INH487      0.1700
      3  C3         8.4090  -12.8370   43.4090 C.3   487  INH487      0.1770
      4  C4         8.3640  -13.2430   41.9300 C.3   487  INH487      0.1860
      5  C5         7.7080  -14.6210   41.8110 C.3   487  INH487      0.1790
      6  O4         8.4440  -15.5860   42.5840 O.3   487  INH487     -0.3490
      7  O3         7.5940  -12.2810   41.1750 O.3   487  INH487     -0.3480
      8  C9         6.4070  -11.8190   41.7320 C.3   487  INH487      0.2920
      9  O10        5.3280  -12.4870   41.0660 O.3   487  INH487     -0.3480
     10  C13        4.0310  -12.0470   41.5130 C.3   487  INH487      0.1790
     11  C12        3.8440  -10.5680   41.2010 C.3   487  INH487      0.1800
     12  C11        4.9280   -9.7810   41.9300 C.3   487  INH487      0.1830
     13  C10        6.3060  -10.3040   41.5120 C.3   487  INH487      0.2040
     14  C14        3.0050  -12.9250   40.8280 C.3   487  INH487      0.1980
     15  O11        3.5820  -13.5890   39.7180 O.3   487  INH487     -0.3980
     16  H25        2.8990  -14.0030   39.2060 H     487  INH487      0.2090
     17  O9         3.9540  -10.3550   39.7970 O.3   487  INH487     -0.3900
     18  H24        3.8380  -11.1810   39.3410 H     487  INH487      0.2100
     19  O8         4.8160   -8.4020   41.6110 O.3   487  INH487     -0.3900
     20  H23        4.6330   -7.9070   42.4020 H     487  INH487      0.2100
     21  O7         7.3190   -9.6420   42.2570 O.3   487  INH487     -0.3880
     22  H22        7.9720   -9.2930   41.6620 H     487  INH487      0.2100
     23  O2         9.1450  -11.6320   43.5640 O.3   487  INH487     -0.3910
     24  H13        8.5890  -10.8910   43.3550 H     487  INH487      0.2100
     25  C6         7.6280  -15.1490   40.3940 C.3   487  INH487      0.1980
     26  O5         6.3810  -14.8270   39.7960 O.3   487  INH487     -0.3980
     27  H14        6.4850  -14.7820   38.8530 H     487  INH487      0.2090
     28  N1         8.9730  -13.6030   45.6460 N.am  487  INH487     -0.3490
     29  C7         9.9990  -13.0320   46.2670 C.2   487  INH487      0.2140
     30  O6        11.0640  -12.7600   45.7000 O.2   487  INH487     -0.2740
     31  C8         9.8150  -12.7170   47.7440 C.3   487  INH487      0.1170
     32  H11        8.1330  -13.8020   46.1510 H     487  INH487      0.1630
     33  O1         7.0760  -15.2360   44.3690 O.3   487  INH487     -0.3690
     34  H12        7.0080  -14.7860   45.2030 H     487  INH487      0.2120
@<TRIPOS>BOND
     1    27    26    1
     2    16    15    1
     3    18    17    1
     4    15    14    1
     5    26    25    1
     6    17    11    1
     7    25     5    1
     8    14    10    1
     9     9    10    1
    10     9     8    1
    11     7     8    1
    12     7     4    1
    13    11    10    1
    14    11    12    1
    15    13     8    1
    16    13    12    1
    17    13    21    1
    18    19    12    1
    19    19    20    1
    20    22    21    1
    21     5     4    1
    22     5     6    1
    23     4     3    1
    24     6     1    1
    25    24    23    1
    26     3    23    1
    27     3     2    1
    28     1     2    1
    29     1    33    1
    30     2    28    1
    31    33    34    1
    32    28    32    1
    33    28    29   am
    34    30    29    2
    35    29    31    1
