@<TRIPOS>MOLECULE
./ligand/3bl0_lig.pdb
 22 22 0 0 0
SMALL
GASTEIGER

@<TRIPOS>ATOM
      1  C1        -4.3930    7.4330   12.8310 C.3   261  INH261      0.0022
      2  N1        -5.2990    6.3810   13.2370 N.pl3 261  INH261     -0.3143
      3  C2        -6.7030    6.6270   12.9950 C.3   261  INH261      0.0022
      4  C3        -4.8070    5.1870   13.7200 C.ar  261  INH261      0.1837
      5  S1        -5.7200    3.7480   14.0210 S.2   261  INH261     -0.0339
      6  N2        -3.5120    5.0100   13.9920 N.ar  261  INH261     -0.1258
      7  N3        -3.2130    3.7120   14.4280 N.ar  261  INH261     -0.1429
      8  C4        -4.2850    2.8900   14.5040 C.ar  261  INH261      0.1262
      9  C5        -4.4090    1.4370   14.8800 C.3   261  INH261      0.1331
     10  S2        -5.2240    1.0780   16.2820 S.O2  261  INH261      0.0494
     11  O1        -6.5510    1.4340   16.1720 O.2   261  INH261     -0.1567
     12  N4        -5.1550   -0.4460   16.5620 N.3   261  INH261     -0.1098
     13  O2        -4.5290    1.6510   17.3790 O.2   261  INH261     -0.1567
     14  H1        -4.9720    8.2990   12.4770 H     261  INH261      0.0428
     15  H2        -3.7470    7.0680   12.0190 H     261  INH261      0.0428
     16  H3        -3.7710    7.7320   13.6880 H     261  INH261      0.0428
     17  H4        -7.2910    5.7650   13.3420 H     261  INH261      0.0428
     18  H5        -6.8690    6.7750   11.9180 H     261  INH261      0.0428
     19  H6        -7.0170    7.5290   13.5410 H     261  INH261      0.0428
     20  H7        -4.9290    0.9260   14.0560 H     261  INH261      0.0587
     21  H8        -4.6760   -1.0500   15.9260 H     261  INH261      0.1690
     22  H9        -3.3900    1.0330   14.9780 H     261  INH261      0.0587
@<TRIPOS>BOND
     1     1     2    1
     2     1    16    1
     3     1    15    1
     4     1    14    1
     5     2     4    1
     6     2     3    1
     7     3    19    1
     8     3    18    1
     9     3    17    1
    10     4     6   ar
    11     4     5   ar
    12     5     8   ar
    13     6     7   ar
    14     7     8   ar
    15     8     9    1
    16     9    10    1
    17     9    22    1
    18     9    20    1
    19    10    11    2
    20    10    12    1
    21    10    13    2
    22    12    21    1
