@<TRIPOS>MOLECULE
/tmp/ewbell/vina_3bl0_3bl0_lig/vina/vina1.pdbqt
 17 17 0 0 0
SMALL
GASTEIGER

@<TRIPOS>ATOM
      1  C3        -4.7230    5.3650   13.5070 C.3   261  INH261      0.1620
      2  S1        -6.0320    4.5350   14.2770 S.3   261  INH261     -0.0370
      3  N2        -3.5510    4.7860   13.7780 N.3   261  INH261     -0.2790
      4  H2        -2.6580    5.1350   13.4290 H     261  INH261      0.1890
      5  N3        -3.6720    3.6510   14.5920 N.3   261  INH261     -0.2950
      6  H3        -2.8700    3.0910   14.8820 H     261  INH261      0.1870
      7  C4        -4.9420    3.3630   14.9590 C.3   261  INH261      0.0850
      8  C5        -5.5170    2.2380   15.7780 C.3   261  INH261      0.2230
      9  S2        -4.5880    0.8720   15.9590 S.O2  261  INH261      0.2130
     10  O1        -5.3010   -0.1110   16.6100 O.2   261  INH261     -0.2110
     11  O2        -3.3550    1.2300   16.5620 O.2   261  INH261     -0.2110
     12  N4        -4.1700    0.3250   14.5690 N.3   261  INH261     -0.2290
     13  H8        -4.3980   -0.6140   14.3120 H     261  INH261      0.1360
     14  H         -3.1560    0.4080   14.5130 H     261  INH261      0.1360
     15  N1        -4.8240    6.4690   12.6880 N.3   261  INH261     -0.3690
     16  C1        -3.6340    7.1040   12.1680 C.3   261  INH261      0.1510
     17  C2        -6.0830    6.9930   12.2050 C.3   261  INH261      0.1510
@<TRIPOS>BOND
     1    16    15    1
     2    17    15    1
     3    15     1    1
     4     4     3    1
     5     1     3    1
     6     1     2    1
     7     3     5    1
     8     2     7    1
     9    13    12    1
    10    14    12    1
    11    12     9    1
    12     5     6    1
    13     5     7    1
    14     7     8    1
    15     8     9    1
    16     9    11    2
    17     9    10    2
