@<TRIPOS>MOLECULE
/tmp/ewbell/vina_3bl0_3bl0_lig/vina/vina5.pdbqt
 17 17 0 0 0
SMALL
GASTEIGER

@<TRIPOS>ATOM
      1  C3         0.3590    3.8940   10.7790 C.3   261  INH261      0.1620
      2  S1        -1.1270    4.1230    9.9240 S.3   261  INH261     -0.0370
      3  N2         0.1590    3.2950   11.9550 N.3   261  INH261     -0.2790
      4  H2         0.9090    3.0850   12.6150 H     261  INH261      0.1890
      5  N3        -1.1870    2.9840   12.1930 N.3   261  INH261     -0.2950
      6  H3        -1.5050    2.5160   13.0420 H     261  INH261      0.1870
      7  C4        -2.0270    3.3570   11.2010 C.3   261  INH261      0.0850
      8  C5        -3.5140    3.1870   11.0300 C.3   261  INH261      0.2230
      9  S2        -4.1680    1.7190   11.4530 S.O2  261  INH261      0.2130
     10  O1        -5.5360    1.7360   11.2800 O.2   261  INH261     -0.2110
     11  O2        -3.7240    1.3750   12.7550 O.2   261  INH261     -0.2110
     12  N4        -3.5830    0.5970   10.5560 N.3   261  INH261     -0.2290
     13  H8        -3.8050    0.5680    9.5830 H     261  INH261      0.1360
     14  H         -3.8890   -0.2890   10.9560 H     261  INH261      0.1360
     15  N1         1.6180    4.2430   10.3390 N.3   261  INH261     -0.3690
     16  C1         2.4930    5.0320   11.1780 C.3   261  INH261      0.1510
     17  C2         2.1910    3.7690    9.0980 C.3   261  INH261      0.1510
@<TRIPOS>BOND
     1    17    15    1
     2    13    12    1
     3     2     1    1
     4     2     7    1
     5    15     1    1
     6    15    16    1
     7    12    14    1
     8    12     9    1
     9     1     3    1
    10     8     7    1
    11     8     9    1
    12     7     5    1
    13    10     9    2
    14     9    11    2
    15     3     5    1
    16     3     4    1
    17     5     6    1
