@<TRIPOS>MOLECULE
/tmp/ewbell/vina_3bl0_3bl0_lig/vina/vina4.pdbqt
 17 17 0 0 0
SMALL
GASTEIGER

@<TRIPOS>ATOM
      1  C3        -5.2890    5.3030   13.1050 C.3   261  INH261      0.1620
      2  S1        -4.0990    4.0630   12.9020 S.3   261  INH261     -0.0370
      3  N2        -6.2890    4.8970   13.8920 N.3   261  INH261     -0.2790
      4  H2        -7.0950    5.4790   14.1210 H     261  INH261      0.1890
      5  N3        -6.1180    3.5910   14.3700 N.3   261  INH261     -0.2950
      6  H3        -6.7890    3.1370   14.9900 H     261  INH261      0.1870
      7  C4        -4.9880    2.9840   13.9390 C.3   261  INH261      0.0850
      8  C5        -4.4060    1.6260   14.2320 C.3   261  INH261      0.2230
      9  S2        -4.4570    1.0960   15.8050 S.O2  261  INH261      0.2130
     10  O1        -3.3830    1.5900   16.5140 O.2   261  INH261     -0.2110
     11  O2        -4.5920   -0.3160   15.8110 O.2   261  INH261     -0.2110
     12  N4        -5.7560    1.5920   16.4920 N.3   261  INH261     -0.2290
     13  H8        -6.5400    1.8690   15.9370 H     261  INH261      0.1360
     14  H         -5.4990    2.3960   17.0620 H     261  INH261      0.1360
     15  N1        -5.2470    6.5720   12.5670 N.3   261  INH261     -0.3690
     16  C1        -6.4710    7.2560   12.2140 C.3   261  INH261      0.1510
     17  C2        -4.0300    7.3400   12.4270 C.3   261  INH261      0.1510
@<TRIPOS>BOND
     1    16    15    1
     2    17    15    1
     3    15     1    1
     4     2     1    1
     5     2     7    1
     6     1     3    1
     7     3     4    1
     8     3     5    1
     9     7     8    1
    10     7     5    1
    11     8     9    1
    12     5     6    1
    13     9    11    2
    14     9    12    1
    15     9    10    2
    16    13    12    1
    17    12    14    1
