@<TRIPOS>MOLECULE
/tmp/ewbell/vina_3bl0_3bl0_lig/vina/vina2.pdbqt
 17 17 0 0 0
SMALL
GASTEIGER

@<TRIPOS>ATOM
      1  C3        -4.0490    4.3250   12.4110 C.3   261  INH261      0.1620
      2  S1        -5.2160    4.2900   13.6880 S.3   261  INH261     -0.0370
      3  N2        -3.2980    3.2210   12.4050 N.3   261  INH261     -0.2790
      4  H2        -2.5430    3.0580   11.7380 H     261  INH261      0.1890
      5  N3        -3.6510    2.3090   13.4090 N.3   261  INH261     -0.2950
      6  H3        -3.1790    1.4130   13.5340 H     261  INH261      0.1870
      7  C4        -4.6700    2.7180   14.1990 C.3   261  INH261      0.0850
      8  C5        -5.3780    2.0500   15.3480 C.3   261  INH261      0.2230
      9  S2        -4.5230    0.9240   16.2210 S.O2  261  INH261      0.2130
     10  O1        -3.3000    1.4350   16.5980 O.2   261  INH261     -0.2110
     11  O2        -4.4750   -0.2890   15.4860 O.2   261  INH261     -0.2110
     12  N4        -5.3030    0.5430   17.5060 N.3   261  INH261     -0.2290
     13  H8        -5.8380   -0.3010   17.5350 H     261  INH261      0.1360
     14  H         -5.9500    1.3080   17.6960 H     261  INH261      0.1360
     15  N1        -3.8890    5.3260   11.4770 N.3   261  INH261     -0.3690
     16  C1        -4.7410    6.4940   11.5060 C.3   261  INH261      0.1510
     17  C2        -2.8220    5.3460   10.5020 C.3   261  INH261      0.1510
@<TRIPOS>BOND
     1    17    15    1
     2    15    16    1
     3    15     1    1
     4     4     3    1
     5     3     1    1
     6     3     5    1
     7     1     2    1
     8     5     6    1
     9     5     7    1
    10     2     7    1
    11     7     8    1
    12     8     9    1
    13    11     9    2
    14     9    10    2
    15     9    12    1
    16    12    13    1
    17    12    14    1
