@<TRIPOS>MOLECULE
/tmp/ewbell/vina_3bl0_3bl0_lig/vina/vina3.pdbqt
 17 17 0 0 0
SMALL
GASTEIGER

@<TRIPOS>ATOM
      1  C3        -5.1200    2.1400   15.2210 C.3   261  INH261      0.1620
      2  S1        -5.2310    3.6720   14.4230 S.3   261  INH261     -0.0370
      3  N2        -4.3120    1.3050   14.5640 N.3   261  INH261     -0.2790
      4  H2        -4.1280    0.3470   14.8660 H     261  INH261      0.1890
      5  N3        -3.7450    1.8750   13.4160 N.3   261  INH261     -0.2950
      6  H3        -3.0990    1.3700   12.8090 H     261  INH261      0.1870
      7  C4        -4.1270    3.1520   13.1820 C.3   261  INH261      0.0850
      8  C5        -3.7390    4.1330   12.1080 C.3   261  INH261      0.2230
      9  S2        -3.8620    3.6270   10.5310 S.O2  261  INH261      0.2130
     10  O1        -4.5450    2.4320   10.4610 O.2   261  INH261     -0.2110
     11  O2        -2.5690    3.6220    9.9460 O.2   261  INH261     -0.2110
     12  N4        -4.6390    4.6760    9.6930 N.3   261  INH261     -0.2290
     13  H8        -4.7550    4.5440    8.7100 H     261  INH261      0.1360
     14  H         -4.1570    5.5660    9.8170 H     261  INH261      0.1360
     15  N1        -5.7430    1.7850   16.3990 N.3   261  INH261     -0.3690
     16  C1        -6.8140    2.5970   16.9310 C.3   261  INH261      0.1510
     17  C2        -5.4670    0.5560   17.1090 C.3   261  INH261      0.1510
@<TRIPOS>BOND
     1    13    12    1
     2    12    14    1
     3    12     9    1
     4    11     9    2
     5    10     9    2
     6     9     8    1
     7     8     7    1
     8     6     5    1
     9     7     5    1
    10     7     2    1
    11     5     3    1
    12     2     1    1
    13     3     4    1
    14     3     1    1
    15     1    15    1
    16    15    16    1
    17    15    17    1
