@<TRIPOS>MOLECULE
./ligand/2hb1_lig.pdb
 17 17 0 0 0
SMALL
GASTEIGER

@<TRIPOS>ATOM
      1  C1        45.2050   12.9580    1.1080 C.ar  300  INH300     -0.0059
      2  C2        45.7690   13.3870    2.3300 C.ar  300  INH300      0.0673
      3  S1        44.4110   14.2720    0.3820 S.2   300  INH300     -0.0853
      4  C3        44.7680   15.3960    1.6130 C.ar  300  INH300      0.1430
      5  C4        45.5320   14.7580    2.6290 C.ar  300  INH300      0.1564
      6  C5        44.3330   16.7240    1.5480 C.2   300  INH300      0.3966
      7  O1        43.6320   17.0320    0.4400 O.co2 300  INH300     -0.2399
      8  O2        46.0460   15.3500    3.8450 O.3   300  INH300     -0.4782
      9  C6        47.2700   16.0930    3.6600 C.3   300  INH300      0.1902
     10  C7        47.5730   16.9740    4.8740 C.2   300  INH300      0.3927
     11  O3        48.7260   17.6560    4.7940 O.co2 300  INH300     -0.2425
     12  O4        44.5590   17.5410    2.4090 O.co2 300  INH300     -0.2399
     13  O5        46.8560   17.0500    5.8220 O.co2 300  INH300     -0.2425
     14 Br1        46.7460   12.2290    3.4440 Br    300  INH300     -0.0459
     15  H1        45.2690   11.9510    0.6990 H     300  INH300      0.0706
     16  H2        47.1710   16.7310    2.7700 H     300  INH300      0.0817
     17  H3        48.1000   15.3860    3.5140 H     300  INH300      0.0817
@<TRIPOS>BOND
     1     1    15    1
     2     1     3   ar
     3     1     2   ar
     4     2    14    1
     5     2     5   ar
     6     3     4   ar
     7     4     5   ar
     8     4     6    1
     9     5     8    1
    10     6    12   ar
    11     6     7   ar
    12     8     9    1
    13     9    17    1
    14     9    16    1
    15     9    10    1
    16    10    13   ar
    17    10    11   ar
