@<TRIPOS>MOLECULE
/tmp/ewbell/vina_2hb1_2hb1_lig/vina/vina1.pdbqt
 16 16 0 0 0
SMALL
GASTEIGER

@<TRIPOS>ATOM
      1  C1        45.2850   12.8580    0.2260 C.ar  300  INH300      0.0720
      2  C2        45.4390   13.1810    1.5920 C.ar  300  INH300      0.0520
      3  S1        44.6100   14.1940   -0.5770 S.2   300  INH300     -0.0910
      4  C3        44.5010   15.1910    0.8010 C.ar  300  INH300      0.1130
      5  C4        45.0020   14.4910    1.9320 C.ar  300  INH300      0.1110
      6 Br1        46.1650   11.9670    2.8320 Br    300  INH300     -0.0480
      7  O2        45.0960   14.9730    3.2940 O.3   300  INH300     -0.3380
      8  C6        46.1980   15.8790    3.5180 C.3   300  INH300      0.2850
      9  C7        45.9030   16.8330    4.6780 C.2   300  INH300      0.1640
     10  O5        44.8040   17.1850    4.9720 O.2   300  INH300     -0.6480
     11  O3        46.9880   17.2420    5.3520 O.3   300  INH300     -0.7750
     12  H         47.6050   17.8180    4.9430 H     300  INH300      0.1670
     13  C5        43.9810   16.4890    0.7330 C.2   300  INH300      0.1860
     14  O4        43.0500   16.8690    1.4020 O.2   300  INH300     -0.6460
     15  O1        44.6020   17.2960   -0.1470 O.3   300  INH300     -0.7720
     16  H         45.5330   17.4000   -0.1150 H     300  INH300      0.1670
@<TRIPOS>BOND
     1     3     1   ar
     2     3     4   ar
     3    15    16    1
     4    15    13    1
     5     1     2   ar
     6    13     4    1
     7    13    14    2
     8     4     5   ar
     9     2     5   ar
    10     2     6    1
    11     5     7    1
    12     7     8    1
    13     8     9    1
    14     9    10    2
    15     9    11    1
    16    12    11    1
