@<TRIPOS>MOLECULE
/tmp/ewbell/vina_2hb1_2hb1_lig/vina/vina3.pdbqt
 16 16 0 0 0
SMALL
GASTEIGER

@<TRIPOS>ATOM
      1  C1        48.8070    6.9870    2.9580 C.ar  300  INH300      0.0720
      2  C2        49.7120    7.3560    1.9370 C.ar  300  INH300      0.0520
      3  S1        49.6710    6.7870    4.4060 S.2   300  INH300     -0.0910
      4  C3        51.2010    7.1590    3.7530 C.ar  300  INH300      0.1130
      5  C4        51.0640    7.4580    2.3690 C.ar  300  INH300      0.1110
      6 Br1        49.1520    7.6830    0.1720 Br    300  INH300     -0.0480
      7  O2        52.1110    7.8280    1.4420 O.3   300  INH300     -0.3380
      8  C6        52.2160    9.2510    1.2190 C.3   300  INH300      0.2850
      9  C7        53.4480    9.8320    1.9170 C.2   300  INH300      0.1640
     10  O5        54.5550    9.7170    1.4940 O.2   300  INH300     -0.6480
     11  O3        53.1820   10.4950    3.0530 O.3   300  INH300     -0.7750
     12  H         53.6700   10.3070    3.8310 H     300  INH300      0.1670
     13  C5        52.3600    7.1460    4.5360 C.2   300  INH300      0.1860
     14  O4        52.9460    6.1350    4.8420 O.2   300  INH300     -0.6460
     15  O1        52.7820    8.3610    4.9320 O.3   300  INH300     -0.7720
     16  H         53.5500    8.4420    5.4630 H     300  INH300      0.1670
@<TRIPOS>BOND
     1     6     2    1
     2     8     7    1
     3     8     9    1
     4     7     5    1
     5    10     9    2
     6     9    11    1
     7     2     5   ar
     8     2     1   ar
     9     5     4   ar
    10     1     3   ar
    11    11    12    1
    12     4     3   ar
    13     4    13    1
    14    13    14    2
    15    13    15    1
    16    15    16    1
