@<TRIPOS>MOLECULE
/tmp/ewbell/vina_2hb1_2hb1_lig/vina/vina5.pdbqt
 16 16 0 0 0
SMALL
GASTEIGER

@<TRIPOS>ATOM
      1  C1        49.1220    4.6190    3.0810 C.ar  300  INH300      0.0720
      2  C2        49.3610    6.0070    2.9670 C.ar  300  INH300      0.0520
      3  S1        50.2790    3.9500    4.1280 S.2   300  INH300     -0.0910
      4  C3        51.0990    5.4100    4.4420 C.ar  300  INH300      0.1130
      5  C4        50.4720    6.4680    3.7280 C.ar  300  INH300      0.1110
      6 Br1        48.2900    7.1240    1.8990 Br    300  INH300     -0.0480
      7  O2        50.8460    7.8660    3.7180 O.3   300  INH300     -0.3380
      8  C6        51.8400    8.1970    2.7240 C.3   300  INH300      0.2850
      9  C7        52.9770    9.0220    3.3320 C.2   300  INH300      0.1640
     10  O5        53.6870    9.7300    2.6890 O.2   300  INH300     -0.6480
     11  O3        53.1120    8.8910    4.6600 O.3   300  INH300     -0.7750
     12  H         52.3900    9.0880    5.2260 H     300  INH300      0.1670
     13  C5        52.2120    5.4640    5.2880 C.2   300  INH300      0.1860
     14  O4        53.2860    5.9030    4.9480 O.2   300  INH300     -0.6460
     15  O1        51.9990    4.9830    6.5270 O.3   300  INH300     -0.7720
     16  H         52.1710    4.0820    6.7170 H     300  INH300      0.1670
@<TRIPOS>BOND
     1     6     2    1
     2    10     9    2
     3     8     9    1
     4     8     7    1
     5     2     1   ar
     6     2     5   ar
     7     1     3   ar
     8     9    11    1
     9     7     5    1
    10     5     4   ar
    11     3     4   ar
    12     4    13    1
    13    11    12    1
    14    14    13    2
    15    13    15    1
    16    15    16    1
