@<TRIPOS>MOLECULE
/tmp/ewbell/vina_2hb1_2hb1_lig/vina/vina2.pdbqt
 16 16 0 0 0
SMALL
GASTEIGER

@<TRIPOS>ATOM
      1  C1        44.7370   12.9680   -1.1120 C.ar  300  INH300      0.0720
      2  C2        44.7910   12.9250    0.2990 C.ar  300  INH300      0.0520
      3  S1        44.4690   14.5730   -1.5990 S.2   300  INH300     -0.0910
      4  C3        44.4110   15.2270   -0.0260 C.ar  300  INH300      0.1130
      5  C4        44.6090   14.1890    0.9260 C.ar  300  INH300      0.1110
      6 Br1        45.0820   11.3230    1.2410 Br    300  INH300     -0.0480
      7  O2        44.6380   14.3110    2.3670 O.3   300  INH300     -0.3380
      8  C6        45.8130   14.9830    2.8720 C.3   300  INH300      0.2850
      9  C7        46.5300   14.1300    3.9220 C.2   300  INH300      0.1640
     10  O5        46.6280   14.4470    5.0660 O.2   300  INH300     -0.6480
     11  O3        47.0380   12.9800    3.4530 O.3   300  INH300     -0.7750
     12  H         47.5740   12.4450    4.0050 H     300  INH300      0.1670
     13  C5        44.1950   16.5910    0.1990 C.2   300  INH300      0.1860
     14  O4        44.7530   17.4640   -0.4230 O.2   300  INH300     -0.6460
     15  O1        43.3090   16.8670    1.1740 O.3   300  INH300     -0.7720
     16  H         42.4390   17.1370    0.9550 H     300  INH300      0.1670
@<TRIPOS>BOND
     1     3     1   ar
     2     3     4   ar
     3     1     2   ar
     4    14    13    2
     5     4    13    1
     6     4     5   ar
     7    13    15    1
     8     2     5   ar
     9     2     6    1
    10     5     7    1
    11    16    15    1
    12     7     8    1
    13     8     9    1
    14    11     9    1
    15    11    12    1
    16     9    10    2
