@<TRIPOS>MOLECULE
/tmp/ewbell/vina_2hb1_2hb1_lig/vina/vina4.pdbqt
 16 16 0 0 0
SMALL
GASTEIGER

@<TRIPOS>ATOM
      1  C1        37.2770    4.5310   -4.4750 C.ar  300  INH300      0.0720
      2  C2        36.9420    3.4940   -3.5750 C.ar  300  INH300      0.0520
      3  S1        37.1770    6.0160   -3.6580 S.2   300  INH300     -0.0910
      4  C3        36.7000    5.3610   -2.1580 C.ar  300  INH300      0.1130
      5  C4        36.6140    3.9450   -2.2660 C.ar  300  INH300      0.1110
      6 Br1        36.9390    1.6850   -4.0880 Br    300  INH300     -0.0480
      7  O2        36.2500    3.0050   -1.2290 O.3   300  INH300     -0.3380
      8  C6        37.3540    2.6060   -0.3880 C.3   300  INH300      0.2850
      9  C7        37.1380    3.0550    1.0590 C.2   300  INH300      0.1640
     10  O5        38.0130    3.1050    1.8660 O.2   300  INH300     -0.6480
     11  O3        35.8750    3.3980    1.3530 O.3   300  INH300     -0.7750
     12  H         35.5840    4.2780    1.2130 H     300  INH300      0.1670
     13  C5        36.4520    6.1710   -1.0450 C.2   300  INH300      0.1860
     14  O4        37.1070    7.1500   -0.7750 O.2   300  INH300     -0.6460
     15  O1        35.4170    5.7740   -0.2810 O.3   300  INH300     -0.7720
     16  H         35.5730    5.3130    0.5190 H     300  INH300      0.1670
@<TRIPOS>BOND
     1     1     3   ar
     2     1     2   ar
     3     6     2    1
     4     3     4   ar
     5     2     5   ar
     6     5     4   ar
     7     5     7    1
     8     4    13    1
     9     7     8    1
    10    13    14    2
    11    13    15    1
    12     8     9    1
    13    15    16    1
    14     9    11    1
    15     9    10    2
    16    12    11    1
