@<TRIPOS>MOLECULE
./ligand/1fhd_lig.pdb
 40 42 0 0 0
SMALL
GASTEIGER

@<TRIPOS>ATOM
      1  C1       -62.3400   16.9760   57.1640 C.3   315  INH315      0.1880
      2  C2       -61.3240   16.7960   58.2880 C.3   315  INH315      0.1341
      3  C3       -60.7700   15.3610   58.2970 C.3   315  INH315      0.1137
      4  C4       -61.9050   14.3280   58.2450 C.3   315  INH315      0.1069
      5  C5       -62.8660   14.6490   57.0970 C.3   315  INH315      0.0792
      6  O1       -60.2620   17.7200   58.0980 O.3   315  INH315     -0.3841
      7  O2       -60.0170   15.1620   59.4830 O.3   315  INH315     -0.3864
      8  O3       -61.3730   13.0200   58.0770 O.3   315  INH315     -0.3869
      9  O4       -63.3760   15.9880   57.2570 O.3   315  INH315     -0.3461
     10  C6       -64.9770   19.6790   53.8930 C.3   315  INH315      0.1689
     11  C7       -65.7950   19.7300   55.2360 C.3   315  INH315      0.1249
     12  C8       -64.8270   19.5360   56.4280 C.3   315  INH315      0.1123
     13  C9       -63.7190   18.5240   56.0950 C.3   315  INH315      0.1057
     14  C10      -62.7790   19.0510   54.9930 C.3   315  INH315      0.0428
     15  N1       -63.6240   19.3650   53.8800 N.pl3 315  INH315     -0.3063
     16  C11      -63.3290   19.4260   52.5390 C.2   315  INH315      0.0077
     17  C12      -64.4290   19.7520   51.8260 C.2   315  INH315      0.0050
     18  N2       -65.4620   19.9120   52.6610 N.pl3 315  INH315     -0.3231
     19  O5       -66.5530   20.9040   55.4460 O.3   315  INH315     -0.3852
     20  O6       -65.5560   19.0870   57.5520 O.3   315  INH315     -0.3865
     21  O7       -62.9370   18.2880   57.2480 O.3   315  INH315     -0.3412
     22  H1       -61.8260   16.8710   56.1970 H     315  INH315      0.0937
     23  H2       -61.8130   16.9960   59.2520 H     315  INH315      0.0671
     24  H3       -60.1180   15.2230   57.4220 H     315  INH315      0.0647
     25  H4       -62.4610   14.3660   59.1940 H     315  INH315      0.0643
     26  H5       -63.7020   13.9340   57.1080 H     315  INH315      0.0587
     27  H6       -62.3310   14.5720   56.1390 H     315  INH315      0.0587
     28  H7       -60.6090   18.6040   58.0930 H     315  INH315      0.2101
     29  H8       -59.3130   15.7980   59.5210 H     315  INH315      0.2100
     30  H9       -60.7780   12.8260   58.7920 H     315  INH315      0.2100
     31  H10      -66.5010   18.8860   55.2190 H     315  INH315      0.0660
     32  H11      -64.3600   20.5030   56.6650 H     315  INH315      0.0647
     33  H12      -64.1820   17.5840   55.7600 H     315  INH315      0.0639
     34  H13      -62.0460   18.2800   54.7130 H     315  INH315      0.0491
     35  H14      -62.2500   19.9510   55.3390 H     315  INH315      0.0491
     36  H15      -62.3460   19.2380   52.1110 H     315  INH315      0.0793
     37  H16      -64.4690   19.8660   50.7440 H     315  INH315      0.0791
     38  H17      -67.1500   21.0300   54.7180 H     315  INH315      0.2101
     39  H18      -65.9470   18.2430   57.3600 H     315  INH315      0.2100
     40  H19      -66.4300   20.1620   52.4110 H     315  INH315      0.1478
@<TRIPOS>BOND
     1     1    21    1
     2     1    22    1
     3     1     9    1
     4     1     2    1
     5     2    23    1
     6     2     6    1
     7     2     3    1
     8     3    24    1
     9     3     7    1
    10     3     4    1
    11     4    25    1
    12     4     8    1
    13     4     5    1
    14     5    27    1
    15     5    26    1
    16     5     9    1
    17     6    28    1
    18     7    29    1
    19     8    30    1
    20    10    18    1
    21    10    15    1
    22    10    11    1
    23    11    31    1
    24    11    19    1
    25    11    12    1
    26    12    32    1
    27    12    20    1
    28    12    13    1
    29    13    33    1
    30    13    21    1
    31    13    14    1
    32    14    35    1
    33    14    34    1
    34    14    15    1
    35    15    16    1
    36    16    36    1
    37    16    17    2
    38    17    37    1
    39    17    18    1
    40    18    40    1
    41    19    38    1
    42    20    39    1
