@<TRIPOS>MOLECULE
/tmp/ewbell/vina_1fhd_1fhd_lig/vina/vina5.pdbqt
 27 29 0 0 0
SMALL
GASTEIGER

@<TRIPOS>ATOM
      1  C6       -65.7440   16.6800   48.3440 C.3   315  INH315      0.2740
      2  C7       -66.9090   16.0630   49.2030 C.3   315  INH315      0.1470
      3  C8       -67.0060   16.8220   50.5480 C.3   315  INH315      0.1740
      4  C9       -65.6160   17.2110   51.0770 C.3   315  INH315      0.1730
      5  C10      -64.9290   18.2470   50.1660 C.3   315  INH315      0.1590
      6  N1       -64.9040   17.6590   48.8600 N.pl3 315  INH315     -0.3630
      7  C11      -64.0560   17.8930   47.8040 C.2   315  INH315      0.1040
      8  C12      -64.3800   17.1090   46.7530 C.2   315  INH315      0.1020
      9  N2       -65.4320   16.3490   47.0790 N.pl3 315  INH315     -0.3740
     10  H19      -65.9050   15.6540   46.4840 H     315  INH315      0.1610
     11  O7       -65.7460   17.7890   52.3600 O.3   315  INH315     -0.3490
     12  C1       -64.4620   17.7900   53.0200 C.3   315  INH315      0.2910
     13  O4       -64.4140   16.6920   53.9430 O.3   315  INH315     -0.3560
     14  C5       -63.1270   16.5760   54.5830 C.3   315  INH315      0.2050
     15  C4       -62.8650   17.8230   55.4320 C.3   315  INH315      0.1730
     16  C3       -62.9520   19.0880   54.5660 C.3   315  INH315      0.1820
     17  C2       -64.2550   19.1140   53.7490 C.3   315  INH315      0.2040
     18  O3       -61.5840   17.7300   56.0420 O.3   315  INH315     -0.3910
     19  H9       -61.1450   18.5710   55.9860 H     315  INH315      0.2100
     20  O2       -62.9100   20.2290   55.4080 O.3   315  INH315     -0.3900
     21  H8       -62.1710   20.1580   56.0000 H     315  INH315      0.2100
     22  O1       -64.2010   20.1610   52.7910 O.3   315  INH315     -0.3880
     23  H7       -63.3090   20.4780   52.7180 H     315  INH315      0.2100
     24  O6       -67.6620   16.0070   51.4980 O.3   315  INH315     -0.3910
     25  H18      -67.8360   16.5120   52.2830 H     315  INH315      0.2100
     26  O5       -68.1820   16.0520   48.5890 O.3   315  INH315     -0.3960
     27  H17      -68.0790   15.9700   47.6490 H     315  INH315      0.2090
@<TRIPOS>BOND
     1    10     9    1
     2     8     9    1
     3     8     7    2
     4     9     1    1
     5    27    26    1
     6     7     6    1
     7     1     6    1
     8     1     2    1
     9    26     2    1
    10     6     5    1
    11     2     3    1
    12     5     4    1
    13     3     4    1
    14     3    24    1
    15     4    11    1
    16    24    25    1
    17    11    12    1
    18    23    22    1
    19    22    17    1
    20    12    17    1
    21    12    13    1
    22    17    16    1
    23    13    14    1
    24    16    20    1
    25    16    15    1
    26    14    15    1
    27    20    21    1
    28    15    18    1
    29    19    18    1
