@<TRIPOS>MOLECULE
/tmp/ewbell/vina_1fhd_1fhd_lig/vina/vina4.pdbqt
 27 29 0 0 0
SMALL
GASTEIGER

@<TRIPOS>ATOM
      1  C6       -63.7700   18.4260   53.6780 C.3   315  INH315      0.2740
      2  C7       -63.5190   19.0840   55.0850 C.3   315  INH315      0.1470
      3  C8       -63.1330   17.9810   56.1000 C.3   315  INH315      0.1740
      4  C9       -63.9190   16.6840   55.8480 C.3   315  INH315      0.1730
      5  C10      -63.5350   16.0380   54.5020 C.3   315  INH315      0.1590
      6  N1       -63.7580   17.0470   53.5100 N.pl3 315  INH315     -0.3630
      7  C11      -64.0240   16.9200   52.1680 C.2   315  INH315      0.1040
      8  C12      -64.1770   18.1350   51.5980 C.2   315  INH315      0.1020
      9  N2       -64.0210   19.0810   52.5310 N.pl3 315  INH315     -0.3740
     10  H19      -64.0810   20.1010   52.3980 H     315  INH315      0.1610
     11  O7       -63.6260   15.7520   56.8690 O.3   315  INH315     -0.3490
     12  C1       -62.2020   15.5230   56.9170 C.3   315  INH315      0.2910
     13  O4       -61.9050   14.2960   56.2340 O.3   315  INH315     -0.3560
     14  C5       -60.4880   14.0400   56.1670 C.3   315  INH315      0.2050
     15  C4       -59.9360   13.8520   57.5830 C.3   315  INH315      0.1730
     16  C3       -60.2460   15.0830   58.4460 C.3   315  INH315      0.1820
     17  C2       -61.7360   15.4550   58.3680 C.3   315  INH315      0.2040
     18  O3       -58.5320   13.6300   57.5270 O.3   315  INH315     -0.3910
     19  H9       -58.1250   14.3110   57.0040 H     315  INH315      0.2100
     20  O2       -59.9080   14.8000   59.7950 O.3   315  INH315     -0.3900
     21  H8       -60.6940   14.5760   60.2770 H     315  INH315      0.2100
     22  O1       -61.9480   16.7210   58.9770 O.3   315  INH315     -0.3880
     23  H7       -62.0530   16.6080   59.9140 H     315  INH315      0.2100
     24  O6       -63.3900   18.4430   57.4100 O.3   315  INH315     -0.3910
     25  H18      -63.5170   19.3840   57.3960 H     315  INH315      0.2100
     26  O5       -62.5380   20.1010   55.1180 O.3   315  INH315     -0.3960
     27  H17      -62.3290   20.3100   56.0200 H     315  INH315      0.2090
@<TRIPOS>BOND
     1     8     7    2
     2     8     9    1
     3     7     6    1
     4    10     9    1
     5     9     1    1
     6     6     1    1
     7     6     5    1
     8     1     2    1
     9     5     4    1
    10     2    26    1
    11     2     3    1
    12    26    27    1
    13     4     3    1
    14     4    11    1
    15     3    24    1
    16    14    13    1
    17    14    15    1
    18    13    12    1
    19    11    12    1
    20    12    17    1
    21    19    18    1
    22    25    24    1
    23    18    15    1
    24    15    16    1
    25    17    16    1
    26    17    22    1
    27    16    20    1
    28    22    23    1
    29    20    21    1
