@<TRIPOS>MOLECULE
/tmp/ewbell/vina_1fhd_1fhd_lig/vina/vina1.pdbqt
 27 29 0 0 0
SMALL
GASTEIGER

@<TRIPOS>ATOM
      1  C6       -64.8780   19.4960   53.5570 C.3   315  INH315      0.2740
      2  C7       -65.7690   19.6150   54.8480 C.3   315  INH315      0.1470
      3  C8       -64.8740   19.4470   56.1000 C.3   315  INH315      0.1740
      4  C9       -63.7730   18.4010   55.8680 C.3   315  INH315      0.1730
      5  C10      -62.7600   18.8660   54.8030 C.3   315  INH315      0.1590
      6  N1       -63.5340   19.1540   53.6330 N.pl3 315  INH315     -0.3630
      7  C11      -63.1630   19.1580   52.3100 C.2   315  INH315      0.1040
      8  C12      -64.2130   19.4790   51.5230 C.2   315  INH315      0.1020
      9  N2       -65.2870   19.6920   52.2910 N.pl3 315  INH315     -0.3740
     10  H19      -66.2340   19.9520   51.9770 H     315  INH315      0.1610
     11  O7       -63.0620   18.1930   57.0720 O.3   315  INH315     -0.3490
     12  C1       -62.4170   16.9020   57.0330 C.3   315  INH315      0.2910
     13  O4       -63.4220   15.8790   57.0740 O.3   315  INH315     -0.3560
     14  C5       -62.8580   14.5580   56.9540 C.3   315  INH315      0.2050
     15  C4       -61.9560   14.2770   58.1580 C.3   315  INH315      0.1730
     16  C3       -60.8610   15.3490   58.2680 C.3   315  INH315      0.1820
     17  C2       -61.4630   16.7640   58.2160 C.3   315  INH315      0.2040
     18  O3       -61.3700   12.9870   58.0320 O.3   315  INH315     -0.3910
     19  H9       -62.0200   12.3240   58.2330 H     315  INH315      0.2100
     20  O2       -60.1730   15.1830   59.4970 O.3   315  INH315     -0.3900
     21  H8       -59.4530   14.5750   59.3770 H     315  INH315      0.2100
     22  O1       -60.4240   17.7230   58.0810 O.3   315  INH315     -0.3880
     23  H7       -60.7940   18.5970   58.1120 H     315  INH315      0.2100
     24  O6       -65.6750   19.0570   57.1960 O.3   315  INH315     -0.3910
     25  H18      -65.1260   18.6730   57.8690 H     315  INH315      0.2100
     26  O5       -66.5110   20.8120   54.9710 O.3   315  INH315     -0.3960
     27  H17      -66.0470   21.5180   54.5370 H     315  INH315      0.2090
@<TRIPOS>BOND
     1     8     9    1
     2     8     7    2
     3    10     9    1
     4     9     1    1
     5     7     6    1
     6     1     6    1
     7     1     2    1
     8     6     5    1
     9    27    26    1
    10     5     4    1
    11     2    26    1
    12     2     3    1
    13     4     3    1
    14     4    11    1
    15     3    24    1
    16    14    13    1
    17    14    15    1
    18    12    11    1
    19    12    13    1
    20    12    17    1
    21    24    25    1
    22    18    15    1
    23    18    19    1
    24    22    23    1
    25    22    17    1
    26    15    16    1
    27    17    16    1
    28    16    20    1
    29    21    20    1
