@<TRIPOS>MOLECULE
/tmp/ewbell/vina_1fhd_1fhd_lig/vina/vina2.pdbqt
 27 29 0 0 0
SMALL
GASTEIGER

@<TRIPOS>ATOM
      1  C6       -64.0280   18.6170   48.4810 C.3   315  INH315      0.2740
      2  C7       -64.7780   17.2520   48.7040 C.3   315  INH315      0.1470
      3  C8       -65.5840   17.3250   50.0230 C.3   315  INH315      0.1740
      4  C9       -64.8280   18.1150   51.1030 C.3   315  INH315      0.1730
      5  C10      -64.6850   19.6020   50.7250 C.3   315  INH315      0.1590
      6  N1       -64.0420   19.6170   49.4450 N.pl3 315  INH315     -0.3630
      7  C11      -63.2780   20.5950   48.8540 C.2   315  INH315      0.1040
      8  C12      -62.8530   20.1940   47.6360 C.2   315  INH315      0.1020
      9  N2       -63.3160   18.9620   47.3940 N.pl3 315  INH315     -0.3740
     10  H19      -63.1580   18.3940   46.5490 H     315  INH315      0.1610
     11  O7       -65.5430   18.0490   52.3200 O.3   315  INH315     -0.3490
     12  C1       -64.6450   18.3090   53.4200 C.3   315  INH315      0.2910
     13  O4       -64.2240   17.0570   53.9810 O.3   315  INH315     -0.3560
     14  C5       -63.2570   17.2320   55.0360 C.3   315  INH315      0.2050
     15  C4       -63.9000   17.9930   56.1980 C.3   315  INH315      0.1730
     16  C3       -64.4550   19.3400   55.7130 C.3   315  INH315      0.1820
     17  C2       -65.3480   19.1600   54.4730 C.3   315  INH315      0.2040
     18  O3       -62.9430   18.1970   57.2290 O.3   315  INH315     -0.3910
     19  H9       -62.8120   17.3850   57.7050 H     315  INH315      0.2100
     20  O2       -65.2190   19.9280   56.7540 O.3   315  INH315     -0.3900
     21  H8       -65.8130   20.5710   56.3860 H     315  INH315      0.2100
     22  O1       -65.6500   20.4280   53.9100 O.3   315  INH315     -0.3880
     23  H7       -66.1830   20.3100   53.1330 H     315  INH315      0.2100
     24  O6       -65.8380   16.0140   50.4860 O.3   315  INH315     -0.3910
     25  H18      -65.6080   15.3880   49.8100 H     315  INH315      0.2100
     26  O5       -65.6400   16.8510   47.6590 O.3   315  INH315     -0.3960
     27  H17      -66.2190   17.5690   47.4330 H     315  INH315      0.2090
@<TRIPOS>BOND
     1    10     9    1
     2     9     8    1
     3     9     1    1
     4    27    26    1
     5     8     7    2
     6    26     2    1
     7     1     2    1
     8     1     6    1
     9     2     3    1
    10     7     6    1
    11     6     5    1
    12    25    24    1
    13     3    24    1
    14     3     4    1
    15     5     4    1
    16     4    11    1
    17    11    12    1
    18    23    22    1
    19    12    13    1
    20    12    17    1
    21    22    17    1
    22    13    14    1
    23    17    16    1
    24    14    15    1
    25    16    15    1
    26    16    20    1
    27    15    18    1
    28    21    20    1
    29    18    19    1
