@<TRIPOS>MOLECULE
/tmp/ewbell/vina_1fhd_1fhd_lig/vina/vina3.pdbqt
 27 29 0 0 0
SMALL
GASTEIGER

@<TRIPOS>ATOM
      1  C6       -61.4340   14.1410   56.8290 C.3   315  INH315      0.2740
      2  C7       -60.9190   15.0880   57.9760 C.3   315  INH315      0.1470
      3  C8       -61.6340   16.4560   57.8640 C.3   315  INH315      0.1740
      4  C9       -61.8450   16.8630   56.3960 C.3   315  INH315      0.1730
      5  C10      -62.8310   15.9190   55.6800 C.3   315  INH315      0.1590
      6  N1       -62.2920   14.6020   55.8390 N.pl3 315  INH315     -0.3630
      7  C11      -62.4690   13.4780   55.0680 C.2   315  INH315      0.1040
      8  C12      -61.7660   12.4410   55.5730 C.2   315  INH315      0.1020
      9  N2       -61.1170   12.8440   56.6710 N.pl3 315  INH315     -0.3740
     10  H19      -60.5010   12.2770   57.2720 H     315  INH315      0.1610
     11  O7       -62.3860   18.1670   56.3440 O.3   315  INH315     -0.3490
     12  C1       -63.2890   18.2690   55.2220 C.3   315  INH315      0.2910
     13  O4       -62.5500   18.6960   54.0690 O.3   315  INH315     -0.3560
     14  C5       -63.3710   18.7400   52.8840 C.3   315  INH315      0.2050
     15  C4       -64.4700   19.7900   53.0640 C.3   315  INH315      0.1730
     16  C3       -65.3050   19.4820   54.3160 C.3   315  INH315      0.1820
     17  C2       -64.4040   19.2600   55.5430 C.3   315  INH315      0.2040
     18  O3       -65.3030   19.8180   51.9120 O.3   315  INH315     -0.3910
     19  H9       -64.7750   19.6730   51.1360 H     315  INH315      0.2100
     20  O2       -66.1760   20.5720   54.5710 O.3   315  INH315     -0.3900
     21  H8       -66.7800   20.3380   55.2650 H     315  INH315      0.2100
     22  O1       -65.1760   18.7480   56.6200 O.3   315  INH315     -0.3880
     23  H7       -65.2510   17.8050   56.5350 H     315  INH315      0.2100
     24  O6       -60.8630   17.4400   58.5220 O.3   315  INH315     -0.3910
     25  H18      -60.5930   18.1020   57.8970 H     315  INH315      0.2100
     26  O5       -61.0740   14.5950   59.2910 O.3   315  INH315     -0.3960
     27  H17      -60.4750   15.0490   59.8720 H     315  INH315      0.2090
@<TRIPOS>BOND
     1    19    18    1
     2    18    15    1
     3    14    15    1
     4    14    13    1
     5    15    16    1
     6    13    12    1
     7    16    20    1
     8    16    17    1
     9    20    21    1
    10     7     8    2
    11     7     6    1
    12    12    17    1
    13    12    11    1
    14    17    22    1
    15     8     9    1
    16     5     6    1
    17     5     4    1
    18     6     1    1
    19    11     4    1
    20     4     3    1
    21    23    22    1
    22     9     1    1
    23     9    10    1
    24     1     2    1
    25     3     2    1
    26     3    24    1
    27    25    24    1
    28     2    26    1
    29    26    27    1
