@<TRIPOS>MOLECULE
./ligand/1gja_lig.pdb
 32 33 0 0 0
SMALL
GASTEIGER

@<TRIPOS>ATOM
      1  C1         8.6090    0.5270   25.3730 C.ar  263  INH263      0.0609
      2  C2         9.4400    0.6780   24.2510 C.ar  263  INH263     -0.0453
      3  C3         9.8880    1.9150   23.8390 C.ar  263  INH263     -0.0397
      4  C4         9.5050    3.0280   24.5500 C.ar  263  INH263      0.0337
      5  C5         8.6900    2.9550   25.6560 C.ar  263  INH263     -0.0397
      6  C6         8.2410    1.7030   26.0610 C.ar  263  INH263     -0.0453
      7  C7         8.1680   -0.7360   25.7880 C.2   263  INH263      0.2662
      8  N1         7.5160   -0.8470   26.9160 N.pl3 263  INH263     -0.2497
      9  N2         8.4100   -1.7900   25.0590 N.2   263  INH263     -0.2884
     10  N3        10.0240    4.1440   24.0940 N.am  263  INH263     -0.2814
     11  C8         9.5920    5.3670   24.3100 C.2   263  INH263      0.2520
     12  O1         8.6100    5.6680   24.9770 O.2   263  INH263     -0.2697
     13  C9        10.3990    6.3420   23.6500 C.ar  263  INH263      0.0836
     14  C10        9.9210    7.6630   23.6150 C.ar  263  INH263     -0.0459
     15  C11       10.6100    8.6750   22.9700 C.ar  263  INH263     -0.0608
     16  C12       11.8340    8.4290   22.3750 C.ar  263  INH263     -0.0581
     17  C13       12.3510    7.1460   22.3840 C.ar  263  INH263     -0.0142
     18  C14       11.6740    6.1070   23.0230 C.ar  263  INH263      0.1910
     19  O2        12.3290    4.8830   22.9670 O.3   263  INH263     -0.2871
     20  H1         9.7380   -0.2030   23.6930 H     263  INH263      0.0627
     21  H2        10.5300    2.0090   22.9710 H     263  INH263      0.0636
     22  H3         8.4050    3.8500   26.1970 H     263  INH263      0.0636
     23  H4         7.5920    1.6280   26.9260 H     263  INH263      0.0627
     24  H5         7.1870   -1.7700   27.2320 H     263  INH263      0.2883
     25  H6         7.3320   -0.0110   27.4890 H     263  INH263      0.2883
     26  H7         8.9240   -1.6950   24.1710 H     263  INH263      0.3009
     27  H8         8.0870   -2.7170   25.3710 H     263  INH263      0.3009
     28  H9        10.8370    4.0540   23.5190 H     263  INH263      0.1551
     29  H10        8.9840    7.8960   24.1080 H     263  INH263      0.0626
     30  H11       10.1860    9.6720   22.9310 H     263  INH263      0.0618
     31  H12       12.3840    9.2360   21.9050 H     263  INH263      0.0619
     32  H13       13.2940    6.9450   21.8880 H     263  INH263      0.0656
@<TRIPOS>BOND
     1     1     7    1
     2     1     6   ar
     3     1     2   ar
     4     2    20    1
     5     2     3   ar
     6     3    21    1
     7     3     4   ar
     8     4    10    1
     9     4     5   ar
    10     5    22    1
    11     5     6   ar
    12     6    23    1
    13     7     9    2
    14     7     8    1
    15     8    25    1
    16     8    24    1
    17     9    27    1
    18     9    26    1
    19    10    28    1
    20    10    11   am
    21    11    13    1
    22    11    12    2
    23    13    18   ar
    24    13    14   ar
    25    14    29    1
    26    14    15   ar
    27    15    30    1
    28    15    16   ar
    29    16    31    1
    30    16    17   ar
    31    17    32    1
    32    17    18   ar
    33    18    19    1
