@<TRIPOS>MOLECULE
/tmp/ewbell/vina_1gja_1gja_lig/vina/vina3.pdbqt
 25 26 0 0 0
SMALL
GASTEIGER

@<TRIPOS>ATOM
      1  C1         8.9680    2.2520   25.0040 C.ar  263  INH263      0.0070
      2  C2         9.2450    2.9610   23.8240 C.ar  263  INH263      0.0170
      3  C3         9.4720    4.3210   23.8280 C.ar  263  INH263      0.0300
      4  C4         9.4220    4.9960   25.0250 C.ar  263  INH263      0.0350
      5  C5         9.1520    4.3670   26.2190 C.ar  263  INH263      0.0300
      6  C6         8.9220    2.9960   26.2030 C.ar  263  INH263      0.0170
      7  N3         9.6940    6.2750   24.9160 N.am  263  INH263     -0.3230
      8  H9        10.6590    6.5310   24.9740 H     263  INH263      0.1690
      9  C8         8.8380    7.2580   24.7380 C.2   263  INH263      0.2590
     10  O1         9.1270    8.4420   24.6270 O.2   263  INH263     -0.2670
     11  C9         7.4900    6.7900   24.7050 C.ar  263  INH263      0.0650
     12  C14        6.7610    6.3810   23.5320 C.ar  263  INH263      0.0810
     13  C13        5.4510    5.9140   23.6400 C.ar  263  INH263      0.0370
     14  C12        4.8120    5.8710   24.8670 C.ar  263  INH263      0.0030
     15  C11        5.4960    6.2580   26.0050 C.ar  263  INH263      0.0010
     16  C10        6.7940    6.7300   25.9240 C.ar  263  INH263      0.0200
     17  O2         7.2570    6.3860   22.2340 O.3   263  INH263     -0.3600
     18  H          8.1280    6.6890   22.0670 H     263  INH263      0.2170
     19  C7         8.7500    0.8690   24.9890 C.2   263  INH263      0.1020
     20  N2         9.2960    0.1260   24.0670 N.2   263  INH263     -0.3850
     21  H8         9.1360   -0.8920   24.0630 H     263  INH263      0.1570
     22  H7         9.8890    0.5570   23.3430 H     263  INH263      0.1570
     23  N1         7.9960    0.3300   25.9110 N.pl3 263  INH263     -0.3850
     24  H6         8.1430   -0.6520   26.1870 H     263  INH263      0.1570
     25  H5         7.2560    0.8860   26.3630 H     263  INH263      0.1570
@<TRIPOS>BOND
     1    18    17    1
     2    17    12    1
     3    22    20    1
     4    12    13   ar
     5    12    11   ar
     6    13    14   ar
     7     2     3   ar
     8     2     1   ar
     9     3     4   ar
    10    21    20    1
    11    20    19    2
    12    10     9    2
    13    11     9    1
    14    11    16   ar
    15     9     7   am
    16    14    15   ar
    17     7     8    1
    18     7     4    1
    19    19     1    1
    20    19    23    1
    21     1     6   ar
    22     4     5   ar
    23    23    24    1
    24    23    25    1
    25    16    15   ar
    26     6     5   ar
