@<TRIPOS>MOLECULE
/tmp/ewbell/vina_1gja_1gja_lig/vina/vina5.pdbqt
 25 26 0 0 0
SMALL
GASTEIGER

@<TRIPOS>ATOM
      1  C1         5.6170    6.5480   24.5160 C.ar  263  INH263      0.0070
      2  C2         6.6660    7.1110   25.2590 C.ar  263  INH263      0.0170
      3  C3         7.9840    6.9710   24.8790 C.ar  263  INH263      0.0300
      4  C4         8.2720    6.2570   23.7400 C.ar  263  INH263      0.0350
      5  C5         7.2950    5.6750   22.9650 C.ar  263  INH263      0.0300
      6  C6         5.9700    5.8190   23.3590 C.ar  263  INH263      0.0170
      7  N3         9.5520    6.2260   23.4510 N.am  263  INH263     -0.3230
      8  H9         9.9280    7.0390   23.0060 H     263  INH263      0.1690
      9  C8        10.3940    5.2430   23.6840 C.2   263  INH263      0.2590
     10  O1        11.5880    5.2500   23.4130 O.2   263  INH263     -0.2670
     11  C9         9.7510    4.1210   24.2890 C.ar  263  INH263      0.0650
     12  C14        9.3520    2.9090   23.6210 C.ar  263  INH263      0.0810
     13  C13        8.7540    1.8710   24.3360 C.ar  263  INH263      0.0370
     14  C12        8.4970    2.0000   25.6900 C.ar  263  INH263      0.0030
     15  C11        8.8740    3.1550   26.3490 C.ar  263  INH263      0.0010
     16  C10        9.4630    4.2010   25.6620 C.ar  263  INH263      0.0200
     17  O2         9.5240    2.6420   22.2690 O.3   263  INH263     -0.3600
     18  H          9.7440    3.3350   21.6780 H     263  INH263      0.2170
     19  C7         4.2810    6.7050   24.9070 C.2   263  INH263      0.1020
     20  N2         3.8850    6.2940   26.0800 N.pl3 263  INH263     -0.3850
     21  H8         2.9030    6.4160   26.3640 H     263  INH263      0.1570
     22  H7         4.5570    5.8470   26.7220 H     263  INH263      0.1570
     23  N1         3.4370    7.2710   24.0850 N.2   263  INH263     -0.3850
     24  H6         3.4250    7.0010   23.0910 H     263  INH263      0.1570
     25  H5         2.7830    7.9880   24.4310 H     263  INH263      0.1570
@<TRIPOS>BOND
     1    18    17    1
     2    17    12    1
     3     5     6   ar
     4     5     4   ar
     5     8     7    1
     6    24    23    1
     7     6     1   ar
     8    10     9    2
     9     7     9   am
    10     7     4    1
    11    12    11   ar
    12    12    13   ar
    13     9    11    1
    14     4     3   ar
    15    23    25    1
    16    23    19    2
    17    11    16   ar
    18    13    14   ar
    19     1    19    1
    20     1     2   ar
    21     3     2   ar
    22    19    20    1
    23    16    15   ar
    24    14    15   ar
    25    20    21    1
    26    20    22    1
