@<TRIPOS>MOLECULE
/tmp/ewbell/vina_1gja_1gja_lig/vina/vina4.pdbqt
 25 26 0 0 0
SMALL
GASTEIGER

@<TRIPOS>ATOM
      1  C1         8.9490    1.7290   24.8270 C.ar  263  INH263      0.0070
      2  C2         8.5470    1.9870   26.1470 C.ar  263  INH263      0.0170
      3  C3         8.7200    3.2230   26.7320 C.ar  263  INH263      0.0300
      4  C4         9.3050    4.2270   25.9970 C.ar  263  INH263      0.0350
      5  C5         9.7270    4.0450   24.7000 C.ar  263  INH263      0.0300
      6  C6         9.5510    2.7930   24.1210 C.ar  263  INH263      0.0170
      7  N3         9.3800    5.3700   26.6380 N.am  263  INH263     -0.3230
      8  H9        10.0700    5.4300   27.3600 H     263  INH263      0.1690
      9  C8         8.6470    6.4430   26.4370 C.2   263  INH263      0.2590
     10  O1         8.7510    7.5000   27.0460 O.2   263  INH263     -0.2670
     11  C9         7.6730    6.2390   25.4140 C.ar  263  INH263      0.0650
     12  C14        6.3640    5.6650   25.5890 C.ar  263  INH263      0.0810
     13  C13        5.4920    5.5470   24.5070 C.ar  263  INH263      0.0370
     14  C12        5.8800    5.9400   23.2380 C.ar  263  INH263      0.0030
     15  C11        7.1320    6.4950   23.0500 C.ar  263  INH263      0.0010
     16  C10        8.0170    6.6190   24.1060 C.ar  263  INH263      0.0200
     17  O2         5.8410    5.2060   26.7920 O.3   263  INH263     -0.3600
     18  H          6.2130    4.4530   27.2080 H     263  INH263      0.2170
     19  C7         8.7590    0.4720   24.2390 C.2   263  INH263      0.1020
     20  N2         8.7350    0.3480   22.9410 N.2   263  INH263     -0.3850
     21  H8         8.5990   -0.5800   22.5150 H     263  INH263      0.1570
     22  H7         8.8500    1.1790   22.3430 H     263  INH263      0.1570
     23  N1         8.6130   -0.5770   25.0060 N.pl3 263  INH263     -0.3850
     24  H6         8.2970   -1.4710   24.6020 H     263  INH263      0.1570
     25  H5         8.8120   -0.5110   26.0140 H     263  INH263      0.1570
@<TRIPOS>BOND
     1    22    20    1
     2    21    20    1
     3    20    19    2
     4    15    14   ar
     5    15    16   ar
     6    14    13   ar
     7    16    11   ar
     8     6     5   ar
     9     6     1   ar
    10    19     1    1
    11    19    23    1
    12    13    12   ar
    13    24    23    1
    14     5     4   ar
    15     1     2   ar
    16    23    25    1
    17    11    12   ar
    18    11     9    1
    19    12    17    1
    20     4     7    1
    21     4     3   ar
    22     2     3   ar
    23     9     7   am
    24     9    10    2
    25     7     8    1
    26    17    18    1
