@<TRIPOS>MOLECULE
/tmp/ewbell/vina_1gja_1gja_lig/vina/vina2.pdbqt
 25 26 0 0 0
SMALL
GASTEIGER

@<TRIPOS>ATOM
      1  C1         8.7430    1.0550   24.9180 C.ar  263  INH263      0.0070
      2  C2         8.9930    1.2770   23.5540 C.ar  263  INH263      0.0170
      3  C3         9.4530    2.4900   23.0870 C.ar  263  INH263      0.0300
      4  C4         9.6690    3.5070   23.9870 C.ar  263  INH263      0.0350
      5  C5         9.4420    3.3610   25.3360 C.ar  263  INH263      0.0300
      6  C6         8.9750    2.1350   25.7960 C.ar  263  INH263      0.0170
      7  N3        10.1460    4.5990   23.4370 N.am  263  INH263     -0.3230
      8  H9        11.0260    4.5130   22.9690 H     263  INH263      0.1690
      9  C8         9.5950    5.7930   23.4350 C.2   263  INH263      0.2590
     10  O1        10.0610    6.7910   22.9010 O.2   263  INH263     -0.2670
     11  C9         8.3650    5.8130   24.1590 C.ar  263  INH263      0.0650
     12  C14        8.1880    6.2400   25.5230 C.ar  263  INH263      0.0810
     13  C13        6.9210    6.2390   26.1060 C.ar  263  INH263      0.0370
     14  C12        5.8170    5.7890   25.4030 C.ar  263  INH263      0.0030
     15  C11        5.9660    5.3770   24.0920 C.ar  263  INH263      0.0010
     16  C10        7.2120    5.3640   23.4920 C.ar  263  INH263      0.0200
     17  O2         9.1980    6.6960   26.3600 O.3   263  INH263     -0.3600
     18  H          9.2180    6.4290   27.2580 H     263  INH263      0.2170
     19  C7         8.2850   -0.1850   25.3830 C.2   263  INH263      0.1020
     20  N2         8.2320   -0.4300   26.6620 N.pl3 263  INH263     -0.3850
     21  H8         7.8900   -1.3410   26.9990 H     263  INH263      0.1570
     22  H7         8.5320    0.2890   27.3370 H     263  INH263      0.1570
     23  N1         7.9070   -1.0910   24.5200 N.2   263  INH263     -0.3850
     24  H6         7.3630   -1.9080   24.8350 H     263  INH263      0.1570
     25  H5         8.1530   -0.9900   23.5250 H     263  INH263      0.1570
@<TRIPOS>BOND
     1    10     9    2
     2     8     7    1
     3     3     2   ar
     4     3     4   ar
     5     9     7   am
     6     9    11    1
     7     7     4    1
     8    16    15   ar
     9    16    11   ar
    10    25    23    1
    11     2     1   ar
    12     4     5   ar
    13    15    14   ar
    14    11    12   ar
    15    23    24    1
    16    23    19    2
    17     1    19    1
    18     1     6   ar
    19     5     6   ar
    20    19    20    1
    21    14    13   ar
    22    12    13   ar
    23    12    17    1
    24    17    18    1
    25    20    21    1
    26    20    22    1
