@<TRIPOS>MOLECULE
/tmp/ewbell/vina_1gja_1gja_lig/vina/vina1.pdbqt
 25 26 0 0 0
SMALL
GASTEIGER

@<TRIPOS>ATOM
      1  C1         8.7500    1.0510   24.8730 C.ar  263  INH263      0.0070
      2  C2         9.0380    1.3370   23.5290 C.ar  263  INH263      0.0170
      3  C3         9.5480    2.5570   23.1380 C.ar  263  INH263      0.0300
      4  C4         9.7770    3.5160   24.0970 C.ar  263  INH263      0.0350
      5  C5         9.5150    3.3060   25.4310 C.ar  263  INH263      0.0300
      6  C6         8.9970    2.0730   25.8140 C.ar  263  INH263      0.0170
      7  N3        10.3020    4.6190   23.6180 N.am  263  INH263     -0.3230
      8  H9        11.2300    4.5470   23.2510 H     263  INH263      0.1690
      9  C8         9.7430    5.8090   23.5690 C.2   263  INH263      0.2590
     10  O1        10.2570    6.8180   23.1030 O.2   263  INH263     -0.2670
     11  C9         8.4390    5.8090   24.1490 C.ar  263  INH263      0.0650
     12  C14        7.1940    5.6480   23.4430 C.ar  263  INH263      0.0810
     13  C13        5.9830    5.6380   24.1350 C.ar  263  INH263      0.0370
     14  C12        5.9500    5.8230   25.5060 C.ar  263  INH263      0.0030
     15  C11        7.1340    5.9780   26.2030 C.ar  263  INH263      0.0010
     16  C10        8.3470    5.9960   25.5390 C.ar  263  INH263      0.0200
     17  O2         7.0650    5.4740   22.0700 O.3   263  INH263     -0.3600
     18  H          6.2630    5.1460   21.7130 H     263  INH263      0.2170
     19  C7         8.2410   -0.1960   25.2590 C.2   263  INH263      0.1020
     20  N2         8.0810   -0.4800   26.5220 N.pl3 263  INH263     -0.3850
     21  H8         7.7030   -1.3960   26.8000 H     263  INH263      0.1570
     22  H7         8.3350    0.2140   27.2420 H     263  INH263      0.1570
     23  N1         7.9220   -1.0690   24.3400 N.2   263  INH263     -0.3850
     24  H6         8.1300   -2.0680   24.4850 H     263  INH263      0.1570
     25  H5         7.4640   -0.7600   23.4720 H     263  INH263      0.1570
@<TRIPOS>BOND
     1    18    17    1
     2    17    12    1
     3    10     9    2
     4     3     2   ar
     5     3     4   ar
     6     8     7    1
     7    12    13   ar
     8    12    11   ar
     9    25    23    1
    10     2     1   ar
    11     9     7   am
    12     9    11    1
    13     7     4    1
    14     4     5   ar
    15    13    14   ar
    16    11    16   ar
    17    23    24    1
    18    23    19    2
    19     1    19    1
    20     1     6   ar
    21    19    20    1
    22     5     6   ar
    23    14    15   ar
    24    16    15   ar
    25    20    21    1
    26    20    22    1
