@<TRIPOS>MOLECULE
./ligand/1ebz_lig.pdb
 89 92 0 0 0
SMALL
GASTEIGER

@<TRIPOS>ATOM
      1  C1         9.7610   24.2260    2.2630 C.ar  203  INH203     -0.0219
      2  C2         9.1790   25.4450    1.8530 C.ar  203  INH203     -0.0564
      3  C3         7.7780   25.6490    1.9890 C.ar  203  INH203     -0.0614
      4  C4         6.9560   24.6220    2.5410 C.ar  203  INH203     -0.0617
      5  C5         7.5370   23.3920    2.9570 C.ar  203  INH203     -0.0614
      6  C6         8.9420   23.1930    2.8180 C.ar  203  INH203     -0.0564
      7  C7        16.4360   22.2180    8.7480 C.ar  203  INH203     -0.0219
      8  C8        15.7560   21.1840    9.4800 C.ar  203  INH203     -0.0564
      9  C9        16.4880   20.0480    9.9520 C.ar  203  INH203     -0.0614
     10  C10       17.8850   19.9480    9.6910 C.ar  203  INH203     -0.0617
     11  C11       18.5560   20.9680    8.9670 C.ar  203  INH203     -0.0614
     12  C12       17.8340   22.1060    8.4910 C.ar  203  INH203     -0.0564
     13  C13       15.6530   23.4230    8.2230 C.3   203  INH203      0.0738
     14  O1        14.6060   23.0810    7.2720 O.3   203  INH203     -0.3601
     15  C14       15.0820   22.6700    5.9440 C.3   203  INH203      0.1628
     16  C15       13.9900   23.0200    4.9360 C.3   203  INH203      0.1185
     17  C16       13.5660   24.4580    4.9970 C.3   203  INH203      0.1185
     18  C17       12.1520   24.6650    4.3340 C.3   203  INH203      0.1628
     19  C18       11.0080   24.7130    5.3480 C.2   203  INH203      0.2452
     20  O2        10.7460   23.6860    5.9880 O.2   203  INH203     -0.2729
     21  N1        10.3370   25.8620    5.4890 N.am  203  INH203     -0.3015
     22  O3        11.8960   23.5860    3.3560 O.3   203  INH203     -0.3601
     23  C19       11.2600   24.0120    2.1290 C.3   203  INH203      0.0738
     24  O4        14.6290   25.1940    4.3310 O.3   203  INH203     -0.3861
     25  O5        14.4880   22.7520    3.5710 O.3   203  INH203     -0.3861
     26  C20       15.2540   21.1910    5.8510 C.2   203  INH203      0.2451
     27  O6        14.2730   20.5030    6.1260 O.2   203  INH203     -0.2729
     28  N2        16.4220   20.6990    5.5050 N.am  203  INH203     -0.3038
     29  C21       16.7770   19.2960    5.3840 C.3   203  INH203      0.0748
     30  C22       16.7260   18.8500    3.9360 C.ar  203  INH203     -0.0215
     31  C23       17.6880   17.8480    3.6580 C.ar  203  INH203     -0.0398
     32  C24       15.8680   19.3060    2.8900 C.ar  203  INH203     -0.0565
     33  C25       15.9940   18.7440    1.5810 C.ar  203  INH203     -0.0614
     34  C26       16.9780   17.7310    1.3270 C.ar  203  INH203     -0.0615
     35  C27       18.1720   18.8000    5.7720 C.3   203  INH203      0.0816
     36  O7        19.0750   19.8480    5.4190 O.3   203  INH203     -0.3893
     37  C28       17.8370   17.2720    2.3640 C.ar  203  INH203     -0.0582
     38  C29       18.4690   17.5380    4.9150 C.3   203  INH203      0.0008
     39  C30        9.2230   26.0330    6.4170 C.3   203  INH203      0.1017
     40  C31        9.3910   26.4240    7.9540 C.3   203  INH203     -0.0197
     41  C32        8.6010   27.6850    8.4190 C.3   203  INH203     -0.0605
     42  C33       10.8780   26.5090    8.4220 C.3   203  INH203     -0.0605
     43  C34        8.2840   26.9760    5.6730 C.2   203  INH203      0.2334
     44  O8         8.7460   28.0030    5.1260 O.2   203  INH203     -0.2738
     45  N3         6.9590   26.6040    5.6740 N.am  203  INH203     -0.3168
     46  C35        6.0160   27.4650    4.9860 C.3   203  INH203      0.0001
     47  H1         9.8010   26.2270    1.4340 H     203  INH203      0.0621
     48  H2         7.3340   26.5860    1.6730 H     203  INH203      0.0618
     49  H3         5.8880   24.7790    2.6440 H     203  INH203      0.0618
     50  H4         6.9150   22.6100    3.3770 H     203  INH203      0.0618
     51  H5         9.3900   22.2580    3.1330 H     203  INH203      0.0621
     52  H6        14.6930   21.2640    9.6740 H     203  INH203      0.0621
     53  H7        15.9810   19.2660   10.5060 H     203  INH203      0.0618
     54  H8        18.4390   19.0870   10.0480 H     203  INH203      0.0618
     55  H9        19.6190   20.8840    8.7740 H     203  INH203      0.0618
     56  H10       18.3480   22.8820    7.9360 H     203  INH203      0.0621
     57  H11       16.3600   24.1060    7.7280 H     203  INH203      0.0610
     58  H12       15.1890   23.9330    9.0800 H     203  INH203      0.0610
     59  H13       16.0260   23.1830    5.7060 H     203  INH203      0.0720
     60  H14       13.1140   22.3860    5.1380 H     203  INH203      0.0651
     61  H15       13.5020   24.7820    6.0460 H     203  INH203      0.0651
     62  H16       12.1690   25.6260    3.7990 H     203  INH203      0.0720
     63  H17       10.6130   26.6440    4.9300 H     203  INH203      0.1495
     64  H18       11.7190   24.9590    1.8100 H     203  INH203      0.0610
     65  H19       11.4340   23.2430    1.3620 H     203  INH203      0.0610
     66  H20       14.6870   24.9160    3.4250 H     203  INH203      0.2100
     67  H21       14.7630   21.8450    3.5070 H     203  INH203      0.2100
     68  H22       17.1440   21.3610    5.3030 H     203  INH203      0.1495
     69  H23       16.0380   18.7400    5.9800 H     203  INH203      0.0574
     70  H24       15.1270   20.0720    3.0860 H     203  INH203      0.0621
     71  H25       15.3460   19.0830    0.7810 H     203  INH203      0.0618
     72  H26       17.0680   17.3100    0.3320 H     203  INH203      0.0618
     73  H27       18.2350   18.5680    6.8450 H     203  INH203      0.0618
     74  H28       19.9620   19.5900    5.6410 H     203  INH203      0.2099
     75  H29       18.5820   16.5070    2.1750 H     203  INH203      0.0620
     76  H30       19.5440   17.4360    4.7070 H     203  INH203      0.0339
     77  H31       18.1010   16.6230    5.4030 H     203  INH203      0.0339
     78  H32        8.7340   25.0490    6.4580 H     203  INH203      0.0597
     79  H33        8.9500   25.5820    8.5080 H     203  INH203      0.0318
     80  H34        8.7880   27.8610    9.4880 H     203  INH203      0.0233
     81  H35        7.5250   27.5240    8.2570 H     203  INH203      0.0233
     82  H36        8.9320   28.5590    7.8400 H     203  INH203      0.0233
     83  H37       11.4200   25.6130    8.0860 H     203  INH203      0.0233
     84  H38       10.9140   26.5690    9.5200 H     203  INH203      0.0233
     85  H39       11.3480   27.4050    7.9900 H     203  INH203      0.0233
     86  H40        6.6570   25.7690    6.1330 H     203  INH203      0.1484
     87  H41        5.0040   27.0420    5.0710 H     203  INH203      0.0426
     88  H42        6.2940   27.5390    3.9240 H     203  INH203      0.0426
     89  H43        6.0350   28.4660    5.4400 H     203  INH203      0.0426
@<TRIPOS>BOND
     1     1    23    1
     2     1     6   ar
     3     1     2   ar
     4     2    47    1
     5     2     3   ar
     6     3    48    1
     7     3     4   ar
     8     4    49    1
     9     4     5   ar
    10     5    50    1
    11     5     6   ar
    12     6    51    1
    13     7    13    1
    14     7    12   ar
    15     7     8   ar
    16     8    52    1
    17     8     9   ar
    18     9    53    1
    19     9    10   ar
    20    10    54    1
    21    10    11   ar
    22    11    55    1
    23    11    12   ar
    24    12    56    1
    25    13    58    1
    26    13    57    1
    27    13    14    1
    28    14    15    1
    29    15    59    1
    30    15    26    1
    31    15    16    1
    32    16    60    1
    33    16    25    1
    34    16    17    1
    35    17    61    1
    36    17    24    1
    37    17    18    1
    38    18    62    1
    39    18    22    1
    40    18    19    1
    41    19    21   am
    42    19    20    2
    43    21    63    1
    44    21    39    1
    45    22    23    1
    46    23    65    1
    47    23    64    1
    48    24    66    1
    49    25    67    1
    50    26    28   am
    51    26    27    2
    52    28    68    1
    53    28    29    1
    54    29    69    1
    55    29    35    1
    56    29    30    1
    57    30    32   ar
    58    30    31   ar
    59    31    38    1
    60    31    37   ar
    61    32    33   ar
    62    32    70    1
    63    33    34   ar
    64    33    71    1
    65    34    37   ar
    66    34    72    1
    67    35    38    1
    68    35    73    1
    69    35    36    1
    70    36    74    1
    71    37    75    1
    72    38    77    1
    73    38    76    1
    74    39    78    1
    75    39    43    1
    76    39    40    1
    77    40    79    1
    78    40    42    1
    79    40    41    1
    80    41    82    1
    81    41    81    1
    82    41    80    1
    83    42    85    1
    84    42    84    1
    85    42    83    1
    86    43    45   am
    87    43    44    2
    88    45    86    1
    89    45    46    1
    90    46    89    1
    91    46    88    1
    92    46    87    1
