@<TRIPOS>MOLECULE
/tmp/ewbell/vina_1ebz_1ebz_lig/vina/vina5.pdbqt
 52 55 0 0 0
SMALL
GASTEIGER

@<TRIPOS>ATOM
      1  C15        5.8130   26.8950    4.6040 C.3   203  INH203      0.1880
      2  C14        7.0070   26.1300    4.0370 C.3   203  INH203      0.2440
      3  O1         7.0380   26.3690    2.5880 O.3   203  INH203     -0.3690
      4  C13        7.2230   25.1790    1.7710 C.3   203  INH203      0.2070
      5  C7         8.4600   24.3570    2.1370 C.ar  203  INH203     -0.0350
      6  C12        9.7600   24.9260    2.0090 C.ar  203  INH203      0.0090
      7  C11       10.9130   24.1460    2.3340 C.ar  203  INH203      0.0010
      8  C10       10.7670   22.8060    2.7790 C.ar  203  INH203      0.0000
      9  C9         9.4720   22.2260    2.9090 C.ar  203  INH203      0.0010
     10  C8         8.3110   22.9990    2.5870 C.ar  203  INH203      0.0090
     11  C20        8.2070   26.7000    4.7170 C.2   203  INH203      0.2500
     12  N2         8.8430   25.9790    5.6120 N.am  203  INH203     -0.3480
     13  H22        8.4690   25.0710    5.8030 H     203  INH203      0.1630
     14  O6         8.5480   27.8320    4.3780 O.2   203  INH203     -0.2710
     15  C21       10.0320   26.3590    6.3550 C.3   203  INH203      0.1470
     16  C27       11.0340   25.3040    6.8310 C.3   203  INH203      0.1490
     17  C29       11.7230   25.8630    8.1060 C.3   203  INH203      0.0730
     18  C23       10.6150   26.7140    8.6870 C.ar  203  INH203     -0.0470
     19  C22        9.6580   26.9920    7.6810 C.ar  203  INH203     -0.0270
     20  C28       10.4840   27.1970   10.0200 C.ar  203  INH203      0.0080
     21  C24        8.5150   27.7850    8.0030 C.ar  203  INH203      0.0100
     22  C25        8.3570   28.2850    9.3340 C.ar  203  INH203      0.0010
     23  C26        9.3430   27.9870   10.3330 C.ar  203  INH203      0.0010
     24  O7        10.2630   24.1500    7.1630 O.3   203  INH203     -0.3930
     25  H28        9.8720   24.2660    8.0210 H     203  INH203      0.2100
     26  O5         6.2170   27.5580    5.8600 O.3   203  INH203     -0.3900
     27  H21        6.8770   27.0340    6.2980 H     203  INH203      0.2100
     28  C16        4.6360   26.0150    4.9050 C.3   203  INH203      0.1880
     29  O4         4.4970   26.0520    6.3520 O.3   203  INH203     -0.3900
     30  H20        5.2220   26.5370    6.7280 H     203  INH203      0.2100
     31  C17        3.3480   26.5040    4.1410 C.3   203  INH203      0.2440
     32  O3         2.4780   25.3480    3.8380 O.3   203  INH203     -0.3690
     33  C19        2.9760   24.4620    2.8080 C.3   203  INH203      0.2070
     34  C1         3.0240   23.0030    3.2310 C.ar  203  INH203     -0.0350
     35  C6         2.0830   22.0730    2.6860 C.ar  203  INH203      0.0090
     36  C5         2.1290   20.7010    3.0700 C.ar  203  INH203      0.0010
     37  C4         3.1140   20.2620    3.9980 C.ar  203  INH203      0.0000
     38  C3         4.0500   21.1940    4.5370 C.ar  203  INH203      0.0010
     39  C2         4.0000   22.5610    4.1500 C.ar  203  INH203      0.0090
     40  C18        2.5470   27.5530    4.9130 C.2   203  INH203      0.2500
     41  N1         3.2120   28.5700    5.4730 N.am  203  INH203     -0.3450
     42  H17        4.2060   28.5980    5.3720 H     203  INH203      0.1630
     43  O2         1.3160   27.4230    4.9790 O.2   203  INH203     -0.2710
     44  C30        2.5620   29.6390    6.2260 C.3   203  INH203      0.1800
     45  C34        3.5300   30.8080    6.0870 C.2   203  INH203      0.2400
     46  N3         3.0690   31.8650    5.3360 N.am  203  INH203     -0.3640
     47  H40        2.1620   31.8440    4.9170 H     203  INH203      0.1610
     48  C35        3.9430   33.0120    5.1750 C.3   203  INH203      0.1490
     49  O8         4.6490   30.7520    6.6450 O.2   203  INH203     -0.2710
     50  C31        2.0060   29.4770    7.7120 C.3   203  INH203      0.0090
     51  C33        0.4480   29.4310    7.7990 C.3   203  INH203      0.0120
     52  C32        2.6320   28.3150    8.5430 C.3   203  INH203      0.0120
@<TRIPOS>BOND
     1     4     5    1
     2     4     3    1
     3     6     5   ar
     4     6     7   ar
     5     5    10   ar
     6     7     8   ar
     7    10     9   ar
     8     3     2    1
     9    35    36   ar
    10    35    34   ar
    11     8     9   ar
    12    33    34    1
    13    33    32    1
    14    36    37   ar
    15    34    39   ar
    16    32    31    1
    17    37    38   ar
    18     2     1    1
    19     2    11    1
    20    31    28    1
    21    31    40    1
    22    39    38   ar
    23    14    11    2
    24     1    28    1
    25     1    26    1
    26    11    12   am
    27    28    29    1
    28    40    43    2
    29    40    41   am
    30    47    46    1
    31    48    46    1
    32    46    45   am
    33    42    41    1
    34    41    44    1
    35    12    13    1
    36    12    15    1
    37    26    27    1
    38    45    44    1
    39    45    49    2
    40    44    50    1
    41    29    30    1
    42    15    16    1
    43    15    19    1
    44    16    24    1
    45    16    17    1
    46    24    25    1
    47    19    21   ar
    48    19    18   ar
    49    50    51    1
    50    50    52    1
    51    21    22   ar
    52    17    18    1
    53    18    20   ar
    54    22    23   ar
    55    20    23   ar
