@<TRIPOS>MOLECULE
/tmp/ewbell/vina_1ebz_1ebz_lig/vina/vina3.pdbqt
 52 55 0 0 0
SMALL
GASTEIGER

@<TRIPOS>ATOM
      1  C15       10.4900   23.6850    4.0770 C.3   203  INH203      0.1880
      2  C14       11.8970   24.0970    4.5040 C.3   203  INH203      0.2440
      3  O1        11.7790   25.3420    5.2750 O.3   203  INH203     -0.3690
      4  C13       12.2510   25.2640    6.6490 C.3   203  INH203      0.2070
      5  C7        11.1520   25.4520    7.6970 C.ar  203  INH203     -0.0350
      6  C12       11.3840   26.2780    8.8350 C.ar  203  INH203      0.0090
      7  C11       10.3610   26.4350    9.8210 C.ar  203  INH203      0.0010
      8  C10        9.1170   25.7670    9.6720 C.ar  203  INH203      0.0000
      9  C9         8.8750   24.9370    8.5400 C.ar  203  INH203      0.0010
     10  C8         9.8930   24.7740    7.5460 C.ar  203  INH203      0.0090
     11  C20       12.4080   22.9730    5.3420 C.2   203  INH203      0.2500
     12  N2        13.6990   22.8610    5.5510 N.am  203  INH203     -0.3480
     13  H22       14.2850   23.5450    5.1140 H     203  INH203      0.1630
     14  O6        11.5660   22.2100    5.8120 O.2   203  INH203     -0.2710
     15  C21       14.3700   21.8510    6.3500 C.3   203  INH203      0.1470
     16  C27       15.4130   22.2410    7.4010 C.3   203  INH203      0.1490
     17  C29       16.3980   21.0480    7.5410 C.3   203  INH203      0.0730
     18  C23       16.3610   20.4730    6.1420 C.ar  203  INH203     -0.0470
     19  C22       15.2020   20.9360    5.4730 C.ar  203  INH203     -0.0270
     20  C28       17.3030   19.6030    5.5240 C.ar  203  INH203      0.0080
     21  C24       14.9580   20.5210    4.1290 C.ar  203  INH203      0.0100
     22  C25       15.8860   19.6460    3.4830 C.ar  203  INH203      0.0010
     23  C26       17.0530   19.1930    4.1850 C.ar  203  INH203      0.0010
     24  O7        16.0990   23.3760    6.8710 O.3   203  INH203     -0.3930
     25  H28       15.4850   23.9250    6.3980 H     203  INH203      0.2100
     26  O5        10.5720   22.4470    3.2750 O.3   203  INH203     -0.3900
     27  H21       10.6750   21.7010    3.8540 H     203  INH203      0.2100
     28  C16        9.7930   24.7240    3.2500 C.3   203  INH203      0.1880
     29  O4         9.7080   24.1510    1.9160 O.3   203  INH203     -0.3900
     30  H20        8.7960   24.0440    1.6750 H     203  INH203      0.2100
     31  C17        8.3900   25.0940    3.8620 C.3   203  INH203      0.2440
     32  O3         8.0480   26.4910    3.5190 O.3   203  INH203     -0.3690
     33  C19        8.4420   27.4760    4.5030 C.3   203  INH203      0.2070
     34  C1         7.4650   27.6060    5.6600 C.ar  203  INH203     -0.0350
     35  C6         6.0810   27.3020    5.4600 C.ar  203  INH203      0.0090
     36  C5         5.1610   27.4100    6.5440 C.ar  203  INH203      0.0010
     37  C4         5.6270   27.8220    7.8230 C.ar  203  INH203      0.0000
     38  C3         7.0070   28.1230    8.0170 C.ar  203  INH203      0.0010
     39  C2         7.9200   28.0120    6.9320 C.ar  203  INH203      0.0090
     40  C18        7.2640   24.1680    3.4000 C.2   203  INH203      0.2500
     41  N1         6.0330   24.6780    3.2850 N.am  203  INH203     -0.3450
     42  H17        5.8960   25.6420    3.5130 H     203  INH203      0.1630
     43  O2         7.5410   22.9880    3.1440 O.2   203  INH203     -0.2710
     44  C30        4.8780   23.9010    2.8440 C.3   203  INH203      0.1800
     45  C34        4.3920   24.6570    1.6130 C.2   203  INH203      0.2400
     46  N3         3.7120   23.8970    0.6890 N.am  203  INH203     -0.3640
     47  H40        3.5640   22.9190    0.8330 H     203  INH203      0.1610
     48  C35        3.2170   24.5620   -0.5010 C.3   203  INH203      0.1490
     49  O8         4.6220   25.8830    1.5110 O.2   203  INH203     -0.2710
     50  C31        3.6820   23.4550    3.8010 C.3   203  INH203      0.0090
     51  C33        3.8250   22.0010    4.3500 C.3   203  INH203      0.0120
     52  C32        3.3410   24.4430    4.9580 C.3   203  INH203      0.0120
@<TRIPOS>BOND
     1    48    46    1
     2    46    47    1
     3    46    45   am
     4    49    45    2
     5    45    44    1
     6    30    29    1
     7    29    28    1
     8    44    41    1
     9    44    50    1
    10    43    40    2
    11    28    31    1
    12    28     1    1
    13    26    27    1
    14    26     1    1
    15    41    40   am
    16    41    42    1
    17    40    31    1
    18    22    21   ar
    19    22    23   ar
    20    32    31    1
    21    32    33    1
    22    50    51    1
    23    50    52    1
    24     1     2    1
    25    21    19   ar
    26    23    20   ar
    27    33    34    1
    28     2     3    1
    29     2    11    1
    30    13    12    1
    31     3     4    1
    32    11    12   am
    33    11    14    2
    34    35    34   ar
    35    35    36   ar
    36    19    18   ar
    37    19    15    1
    38    20    18   ar
    39    12    15    1
    40    34    39   ar
    41    18    17    1
    42    15    16    1
    43    25    24    1
    44    36    37   ar
    45     4     5    1
    46    24    16    1
    47    39    38   ar
    48    16    17    1
    49    10     5   ar
    50    10     9   ar
    51     5     6   ar
    52    37    38   ar
    53     9     8   ar
    54     6     7   ar
    55     8     7   ar
