@<TRIPOS>MOLECULE
/tmp/ewbell/vina_1ebz_1ebz_lig/vina/vina1.pdbqt
 52 55 0 0 0
SMALL
GASTEIGER

@<TRIPOS>ATOM
      1  C15       13.6010   23.1610    5.1410 C.3   203  INH203      0.1880
      2  C14       14.8810   22.8640    5.9200 C.3   203  INH203      0.2440
      3  O1        14.6520   23.2620    7.3150 O.3   203  INH203     -0.3690
      4  C13       15.8580   23.4880    8.0980 C.3   203  INH203      0.2070
      5  C7        16.4810   22.2110    8.6640 C.ar  203  INH203     -0.0350
      6  C12       17.8850   21.9870    8.5490 C.ar  203  INH203      0.0090
      7  C11       18.4580   20.7840    9.0620 C.ar  203  INH203      0.0010
      8  C10       17.6350   19.8080    9.6830 C.ar  203  INH203      0.0000
      9  C9        16.2310   20.0200    9.8040 C.ar  203  INH203      0.0010
     10  C8        15.6470   21.2230    9.2930 C.ar  203  INH203      0.0090
     11  C20       15.0960   21.3930    5.7920 C.2   203  INH203      0.2500
     12  N2        16.3050   20.9380    5.5540 N.am  203  INH203     -0.3480
     13  H22       17.0300   21.6220    5.4550 H     203  INH203      0.1630
     14  O6        14.1080   20.6770    5.9370 O.2   203  INH203     -0.2710
     15  C21       16.7040   19.5490    5.4180 C.3   203  INH203      0.1470
     16  C27       18.1360   19.1060    5.7290 C.3   203  INH203      0.1490
     17  C29       18.4310   17.8510    4.8620 C.3   203  INH203      0.0730
     18  C23       17.5700   18.1260    3.6480 C.ar  203  INH203     -0.0470
     19  C22       16.5890   19.0930    3.9770 C.ar  203  INH203     -0.0270
     20  C28       17.6670   17.5480    2.3510 C.ar  203  INH203      0.0080
     21  C24       15.6570   19.5110    2.9790 C.ar  203  INH203      0.0100
     22  C25       15.7310   18.9470    1.6670 C.ar  203  INH203      0.0010
     23  C26       16.7360   17.9700    1.3620 C.ar  203  INH203      0.0010
     24  O7        18.9780   20.1850    5.3230 O.3   203  INH203     -0.3930
     25  H28       18.9100   20.3020    4.3820 H     203  INH203      0.2100
     26  O5        13.8310   22.8830    3.7090 O.3   203  INH203     -0.3900
     27  H21       14.1970   22.0120    3.6100 H     203  INH203      0.2100
     28  C16       13.1470   24.5850    5.2670 C.3   203  INH203      0.1880
     29  O4        14.0040   25.3360    4.3630 O.3   203  INH203     -0.3900
     30  H20       14.8390   24.8930    4.2770 H     203  INH203      0.2100
     31  C17       11.6130   24.7270    4.9380 C.3   203  INH203      0.2440
     32  O3        11.1770   23.5940    4.0940 O.3   203  INH203     -0.3690
     33  C19       10.9530   23.9190    2.7020 C.3   203  INH203      0.2070
     34  C1         9.5240   24.3330    2.3950 C.ar  203  INH203     -0.0350
     35  C6         8.4440   23.4480    2.7100 C.ar  203  INH203      0.0090
     36  C5         7.1000   23.8350    2.4350 C.ar  203  INH203      0.0010
     37  C4         6.8390   25.1040    1.8460 C.ar  203  INH203      0.0000
     38  C3         7.9190   25.9820    1.5360 C.ar  203  INH203      0.0010
     39  C2         9.2580   25.5910    1.8130 C.ar  203  INH203      0.0090
     40  C18       10.7300   24.8020    6.1840 C.2   203  INH203      0.2500
     41  N1        10.1440   25.9690    6.4730 N.am  203  INH203     -0.3450
     42  H17       10.3130   26.7480    5.8680 H     203  INH203      0.1630
     43  O2        10.5870   23.7780    6.8660 O.2   203  INH203     -0.2710
     44  C30        9.2700   26.1660    7.6270 C.3   203  INH203      0.1800
     45  C34        8.1760   27.0820    7.0890 C.2   203  INH203      0.2400
     46  N3         6.8930   26.7260    7.4360 N.am  203  INH203     -0.3640
     47  H40        6.7140   25.9190    7.9980 H     203  INH203      0.1610
     48  C35        5.8070   27.5640    6.9610 C.3   203  INH203      0.1490
     49  O8         8.4870   28.0730    6.3910 O.2   203  INH203     -0.2710
     50  C31        9.7830   26.6080    9.0710 C.3   203  INH203      0.0090
     51  C33       11.3360   26.5720    9.2250 C.3   203  INH203      0.0120
     52  C32        9.2140   27.9580    9.6040 C.3   203  INH203      0.0120
@<TRIPOS>BOND
     1    23    22   ar
     2    23    20   ar
     3    38    39   ar
     4    38    37   ar
     5    22    21   ar
     6    39    34   ar
     7    37    36   ar
     8    20    18   ar
     9    34    33    1
    10    34    35   ar
    11    36    35   ar
    12    33    32    1
    13    21    19   ar
    14    27    26    1
    15    18    19   ar
    16    18    17    1
    17    26     1    1
    18    19    15    1
    19    32    31    1
    20    30    29    1
    21    29    28    1
    22    25    24    1
    23    17    16    1
    24    31    28    1
    25    31    40    1
    26     1    28    1
    27     1     2    1
    28    24    16    1
    29    15    12    1
    30    15    16    1
    31    13    12    1
    32    12    11   am
    33    11     2    1
    34    11    14    2
    35    42    41    1
    36     2     3    1
    37    40    41   am
    38    40    43    2
    39    49    45    2
    40    41    44    1
    41    48    46    1
    42    45    46   am
    43    45    44    1
    44     3     4    1
    45    46    47    1
    46    44    50    1
    47     4     5    1
    48     6     5   ar
    49     6     7   ar
    50     5    10   ar
    51     7     8   ar
    52    50    51    1
    53    50    52    1
    54    10     9   ar
    55     8     9   ar
