@<TRIPOS>MOLECULE
/tmp/ewbell/vina_1ebz_1ebz_lig/vina/vina2.pdbqt
 52 55 0 0 0
SMALL
GASTEIGER

@<TRIPOS>ATOM
      1  C15       13.7260   23.1850    5.2000 C.3   203  INH203      0.1880
      2  C14       15.1840   22.9150    5.5650 C.3   203  INH203      0.2440
      3  O1        15.4220   23.4940    6.8940 O.3   203  INH203     -0.3690
      4  C13       14.9950   22.6680    8.0130 C.3   203  INH203      0.2070
      5  C7        16.1040   21.7980    8.6060 C.ar  203  INH203     -0.0350
      6  C12       17.4660   22.2080    8.5050 C.ar  203  INH203      0.0090
      7  C11       18.4990   21.3820    9.0440 C.ar  203  INH203      0.0010
      8  C10       18.1750   20.1520    9.6750 C.ar  203  INH203      0.0000
      9  C9        16.8180   19.7310    9.7800 C.ar  203  INH203      0.0010
     10  C8        15.7750   20.5520    9.2440 C.ar  203  INH203      0.0090
     11  C20       15.3260   21.4290    5.5760 C.2   203  INH203      0.2500
     12  N2        16.5190   20.8950    5.4460 N.am  203  INH203     -0.3480
     13  H22       17.2840   21.5310    5.3300 H     203  INH203      0.1630
     14  O6        14.2940   20.7780    5.7260 O.2   203  INH203     -0.2710
     15  C21       16.8490   19.4810    5.4530 C.3   203  INH203      0.1470
     16  C27       18.2230   18.9940    5.9200 C.3   203  INH203      0.1490
     17  C29       18.5170   17.6600    5.1810 C.3   203  INH203      0.0730
     18  C23       17.7760   17.8780    3.8790 C.ar  203  INH203     -0.0470
     19  C22       16.8280   18.9170    4.0470 C.ar  203  INH203     -0.0270
     20  C28       17.9490   17.1930    2.6430 C.ar  203  INH203      0.0080
     21  C24       16.0080   19.2980    2.9410 C.ar  203  INH203      0.0100
     22  C25       16.1580   18.6270    1.6880 C.ar  203  INH203      0.0010
     23  C26       17.1280   17.5790    1.5480 C.ar  203  INH203      0.0010
     24  O7        19.1550   19.9940    5.5070 O.3   203  INH203     -0.3930
     25  H28       20.0400   19.6670    5.6210 H     203  INH203      0.2100
     26  O5        13.5150   22.8510    3.7770 O.3   203  INH203     -0.3900
     27  H21       12.7790   22.2550    3.6980 H     203  INH203      0.2100
     28  C16       13.3200   24.6150    5.4030 C.3   203  INH203      0.1880
     29  O4        13.7040   25.2950    4.1770 O.3   203  INH203     -0.3900
     30  H20       12.9930   25.2430    3.5500 H     203  INH203      0.2100
     31  C17       11.7820   24.7310    5.7270 C.3   203  INH203      0.2440
     32  O3        11.5270   25.9610    6.5060 O.3   203  INH203     -0.3690
     33  C19       11.3450   25.7580    7.9270 C.3   203  INH203      0.2070
     34  C1        10.2340   26.6050    8.5250 C.ar  203  INH203     -0.0350
     35  C6         8.9560   26.6570    7.8850 C.ar  203  INH203      0.0090
     36  C5         7.9060   27.4410    8.4470 C.ar  203  INH203      0.0010
     37  C4         8.1370   28.1700    9.6470 C.ar  203  INH203      0.0000
     38  C3         9.4130   28.1130   10.2810 C.ar  203  INH203      0.0010
     39  C2        10.4560   27.3290    9.7160 C.ar  203  INH203      0.0090
     40  C18       10.8990   24.7280    4.4790 C.2   203  INH203      0.2500
     41  N1         9.5980   25.0050    4.6250 N.am  203  INH203     -0.3450
     42  H17        9.2550   25.1950    5.5450 H     203  INH203      0.1630
     43  O2        11.4250   24.4780    3.3860 O.2   203  INH203     -0.2710
     44  C30        8.6540   25.0440    3.5110 C.3   203  INH203      0.1800
     45  C34        7.7960   26.2660    3.8180 C.2   203  INH203      0.2400
     46  N3         6.9260   26.1210    4.8730 N.am  203  INH203     -0.3640
     47  H40        6.8730   25.2650    5.3860 H     203  INH203      0.1610
     48  C35        6.0870   27.2540    5.2180 C.3   203  INH203      0.1490
     49  O8         7.9250   27.3000    3.1240 O.2   203  INH203     -0.2710
     50  C31        7.7890   23.7940    3.0290 C.3   203  INH203      0.0090
     51  C33        6.7630   24.1380    1.9030 C.3   203  INH203      0.0120
     52  C32        8.6000   22.5160    2.6540 C.3   203  INH203      0.0120
@<TRIPOS>BOND
     1    23    22   ar
     2    23    20   ar
     3    22    21   ar
     4    51    50    1
     5    20    18   ar
     6    52    50    1
     7    21    19   ar
     8    50    44    1
     9    49    45    2
    10    43    40    2
    11    44    45    1
    12    44    41    1
    13    30    29    1
    14    27    26    1
    15    26     1    1
    16    45    46   am
    17    18    19   ar
    18    18    17    1
    19    19    15    1
    20    29    28    1
    21    40    41   am
    22    40    31    1
    23    41    42    1
    24    46    48    1
    25    46    47    1
    26    17    16    1
    27     1    28    1
    28     1     2    1
    29    13    12    1
    30    28    31    1
    31    12    15    1
    32    12    11   am
    33    15    16    1
    34    24    25    1
    35    24    16    1
    36     2    11    1
    37     2     3    1
    38    11    14    2
    39    31    32    1
    40    32    33    1
    41     3     4    1
    42    35    36   ar
    43    35    34   ar
    44    33    34    1
    45     4     5    1
    46    36    37   ar
    47     6     5   ar
    48     6     7   ar
    49    34    39   ar
    50     5    10   ar
    51     7     8   ar
    52    10     9   ar
    53    37    38   ar
    54     8     9   ar
    55    39    38   ar
