@<TRIPOS>MOLECULE
/tmp/ewbell/vina_1ebz_1ebz_lig/vina/vina4.pdbqt
 52 55 0 0 0
SMALL
GASTEIGER

@<TRIPOS>ATOM
      1  C15        5.0490   26.0440    5.5810 C.3   203  INH203      0.1880
      2  C14        3.5520   26.0420    5.2800 C.3   203  INH203      0.2440
      3  O1         3.1300   24.6410    5.1450 O.3   203  INH203     -0.3690
      4  C13        3.9600   23.8290    4.2680 C.3   203  INH203      0.2070
      5  C7         3.4010   22.4310    3.9990 C.ar  203  INH203     -0.0350
      6  C12        2.2270   22.2700    3.2060 C.ar  203  INH203      0.0090
      7  C11        1.6990   20.9630    2.9750 C.ar  203  INH203      0.0010
      8  C10        2.3360   19.8250    3.5350 C.ar  203  INH203      0.0000
      9  C9         3.5090   19.9730    4.3300 C.ar  203  INH203      0.0010
     10  C8         4.0470   21.2790    4.5680 C.ar  203  INH203      0.0090
     11  C20        2.9070   26.7040    6.4520 C.2   203  INH203      0.2500
     12  N2         2.7990   28.0120    6.4740 N.am  203  INH203     -0.3480
     13  H22        3.1780   28.5060    5.6900 H     203  INH203      0.1630
     14  O6         2.4900   25.9650    7.3410 O.2   203  INH203     -0.2710
     15  C21        2.1880   28.8210    7.5130 C.3   203  INH203      0.1470
     16  C27        0.6660   28.9490    7.6210 C.3   203  INH203      0.1490
     17  C29        0.3620   30.3250    8.2740 C.3   203  INH203      0.0730
     18  C23        1.5340   31.1460    7.7840 C.ar  203  INH203     -0.0470
     19  C22        2.5690   30.2800    7.3540 C.ar  203  INH203     -0.0270
     20  C28        1.6540   32.5640    7.7300 C.ar  203  INH203      0.0080
     21  C24        3.7820   30.8370    6.8470 C.ar  203  INH203      0.0100
     22  C25        3.9300   32.2580    6.7810 C.ar  203  INH203      0.0010
     23  C26        2.8650   33.1120    7.2230 C.ar  203  INH203      0.0010
     24  O7         0.1740   28.9290    6.2810 O.3   203  INH203     -0.3930
     25  H28        0.6780   28.3090    5.7680 H     203  INH203      0.2100
     26  O5         5.2560   26.4040    6.9990 O.3   203  INH203     -0.3900
     27  H21        4.6280   27.0700    7.2520 H     203  INH203      0.2100
     28  C16        5.8210   27.0180    4.7410 C.3   203  INH203      0.1880
     29  O4         5.9660   28.2030    5.5730 O.3   203  INH203     -0.3900
     30  H20        5.1070   28.5310    5.8090 H     203  INH203      0.2100
     31  C17        7.1970   26.4080    4.2780 C.3   203  INH203      0.2440
     32  O3         7.5170   26.8740    2.9120 O.3   203  INH203     -0.3690
     33  C19        7.5250   25.8410    1.8990 C.3   203  INH203      0.2070
     34  C1         8.4840   24.7010    2.2000 C.ar  203  INH203     -0.0350
     35  C6         7.9700   23.3940    2.4730 C.ar  203  INH203      0.0090
     36  C5         8.8650   22.3170    2.7450 C.ar  203  INH203      0.0010
     37  C4        10.2680   22.5500    2.7440 C.ar  203  INH203      0.0000
     38  C3        10.7730   23.8550    2.4700 C.ar  203  INH203      0.0010
     39  C2         9.8770   24.9260    2.1990 C.ar  203  INH203      0.0090
     40  C18        8.3580   26.7470    5.2150 C.2   203  INH203      0.2500
     41  N1         8.8280   25.7830    6.0140 N.am  203  INH203     -0.3450
     42  H17        8.3970   24.8810    5.9720 H     203  INH203      0.1630
     43  O2         8.8180   27.8970    5.1880 O.2   203  INH203     -0.2710
     44  C30        9.9370   25.9780    6.9430 C.3   203  INH203      0.1800
     45  C34       11.0170   25.0460    6.4060 C.2   203  INH203      0.2400
     46  N3        11.9900   25.6530    5.6460 N.am  203  INH203     -0.3640
     47  H40       11.9680   26.6370    5.4670 H     203  INH203      0.1610
     48  C35       13.0500   24.8190    5.1130 C.3   203  INH203      0.1490
     49  O8        10.9690   23.8250    6.6770 O.2   203  INH203     -0.2710
     50  C31        9.7970   25.9030    8.5300 C.3   203  INH203      0.0090
     51  C33        9.8870   27.2930    9.2360 C.3   203  INH203      0.0120
     52  C32        8.5700   25.1010    9.0620 C.3   203  INH203      0.0120
@<TRIPOS>BOND
     1    33    34    1
     2    33    32    1
     3    39    34   ar
     4    39    38   ar
     5    34    35   ar
     6    38    37   ar
     7    35    36   ar
     8    37    36   ar
     9    32    31    1
    10     7     6   ar
    11     7     8   ar
    12     6     5   ar
    13     8     9   ar
    14     5     4    1
    15     5    10   ar
    16     4     3    1
    17    31    28    1
    18    31    40    1
    19     9    10   ar
    20    28    29    1
    21    28     1    1
    22    48    46    1
    23     3     2    1
    24    43    40    2
    25    40    41   am
    26     2     1    1
    27     2    11    1
    28    47    46    1
    29    29    30    1
    30     1    26    1
    31    46    45   am
    32    13    12    1
    33    25    24    1
    34    42    41    1
    35    41    44    1
    36    24    16    1
    37    45    49    2
    38    45    44    1
    39    11    12   am
    40    11    14    2
    41    12    15    1
    42    22    21   ar
    43    22    23   ar
    44    21    19   ar
    45    44    50    1
    46    26    27    1
    47    23    20   ar
    48    19    15    1
    49    19    18   ar
    50    15    16    1
    51    16    17    1
    52    20    18   ar
    53    18    17    1
    54    50    52    1
    55    50    51    1
