@<TRIPOS>MOLECULE
./ligand/1o5r_lig.pdb
 60 63 0 0 0
SMALL
GASTEIGER

@<TRIPOS>ATOM
      1  C1        51.9840   54.5140   20.7520 C.2   353  INH353      0.0201
      2  N1        52.0530   55.5750   21.7700 N.pl3 353  INH353     -0.3076
      3  C2        51.7930   54.9070   22.8850 C.3   353  INH353      0.1235
      4  N2        51.6380   53.6160   22.7630 N.pl3 353  INH353     -0.3180
      5  C3        51.7660   53.3080   21.3420 C.2   353  INH353      0.1048
      6  C4        51.7380   51.9640   20.7950 C.2   353  INH353      0.2566
      7  O1        51.9080   51.9200   19.6970 O.2   353  INH353     -0.2690
      8  N3        51.4150   51.0140   21.5230 N.am  353  INH353     -0.3243
      9  C5        52.0850   57.0330   21.6130 C.3   353  INH353      0.0496
     10  C6        53.5120   57.6680   21.6270 C.3   353  INH353      0.0628
     11  O2        54.5430   57.4310   22.6980 O.3   353  INH353     -0.3932
     12  C7        51.3820   57.4530   20.3350 C.3   353  INH353     -0.0141
     13  C8        49.8710   57.5460   20.5300 C.3   353  INH353      0.0251
     14  N4        49.2310   57.6440   19.2360 N.ar  353  INH353     -0.3465
     15  C9        48.7350   58.8100   18.7000 C.ar  353  INH353      0.0057
     16  C10       48.2680   58.5680   17.4420 C.ar  353  INH353     -0.0364
     17  C11       48.4750   57.1790   17.2260 C.ar  353  INH353     -0.0000
     18  C12       49.0830   56.6520   18.3890 C.ar  353  INH353      0.0508
     19  C13       48.1540   56.3370   16.1950 C.ar  353  INH353     -0.0508
     20  C14       48.4460   54.9760   16.2970 C.ar  353  INH353     -0.0397
     21  C15       49.0830   54.5020   17.4470 C.ar  353  INH353      0.0367
     22  C16       49.3700   55.3570   18.4790 C.ar  353  INH353     -0.0163
     23  N5        49.3130   53.2450   17.7210 N.am  353  INH353     -0.2694
     24  C17       49.2560   52.2020   16.8530 C.2   353  INH353      0.3041
     25  O3        48.7460   52.3280   15.7660 O.2   353  INH353     -0.2525
     26  N6        49.5190   51.0810   17.4430 N.am  353  INH353     -0.2950
     27  C18       49.2960   49.8220   16.7820 C.3   353  INH353      0.0383
     28  C19       47.7260   49.3490   18.7000 C.ar  353  INH353     -0.0571
     29  C20       48.0320   49.2190   17.3550 C.ar  353  INH353     -0.0303
     30  C21       47.1680   48.5140   16.5360 C.ar  353  INH353     -0.0571
     31  C22       45.9940   47.9860   17.0600 C.ar  353  INH353     -0.0615
     32  C23       45.6590   48.1380   18.4150 C.ar  353  INH353     -0.0617
     33  C24       46.5700   48.7720   19.2010 C.ar  353  INH353     -0.0615
     34  H1        52.0920   54.6720   19.6800 H     353  INH353      0.0801
     35  H2        51.7130   55.4070   23.8490 H     353  INH353      0.0744
     36  H3        51.3940   50.0850   21.1530 H     353  INH353      0.1453
     37  H4        51.1760   51.1760   22.4800 H     353  INH353      0.1453
     38  H5        51.5310   57.4570   22.4630 H     353  INH353      0.0523
     39  H6        53.3510   58.7560   21.6080 H     353  INH353      0.0576
     40  H7        53.9860   57.3510   20.6860 H     353  INH353      0.0576
     41  H8        55.3310   57.9210   22.4930 H     353  INH353      0.2095
     42  H9        51.5960   56.7130   19.5500 H     353  INH353      0.0301
     43  H10       51.7630   58.4370   20.0250 H     353  INH353      0.0301
     44  H11       49.6310   58.4380   21.1280 H     353  INH353      0.0492
     45  H12       49.5110   56.6470   21.0520 H     353  INH353      0.0492
     46  H13       48.7180   59.7760   19.2020 H     353  INH353      0.0809
     47  H14       47.8300   59.2860   16.7500 H     353  INH353      0.0639
     48  H15       47.6750   56.7260   15.3040 H     353  INH353      0.0625
     49  H16       48.1820   54.2960   15.4950 H     353  INH353      0.0636
     50  H17       49.8360   54.9730   19.3790 H     353  INH353      0.0657
     51  H18       49.5560   53.0290   18.6670 H     353  INH353      0.1564
     52  H19       49.8830   51.0890   18.3740 H     353  INH353      0.1506
     53  H20       50.1470   49.1490   16.9620 H     353  INH353      0.0512
     54  H21       49.1770   49.9830   15.7000 H     353  INH353      0.0512
     55  H22       48.3880   49.9000   19.3580 H     353  INH353      0.0621
     56  H23       47.4060   48.3740   15.4880 H     353  INH353      0.0621
     57  H24       45.3200   47.4440   16.4060 H     353  INH353      0.0618
     58  H25       44.7220   47.7690   18.8150 H     353  INH353      0.0618
     59  H26       46.3830   48.8280   20.2670 H     353  INH353      0.0618
     60  H27       51.4600   52.9440   23.5230 H     353  INH353      0.1481
@<TRIPOS>BOND
     1     1    34    1
     2     1     5    2
     3     1     2    1
     4     2     9    1
     5     2     3    1
     6     3    35    1
     7     3     4    1
     8     4    60    1
     9     4     5    1
    10     5     6    1
    11     6     8   am
    12     6     7    2
    13     8    37    1
    14     8    36    1
    15     9    38    1
    16     9    12    1
    17     9    10    1
    18    10    40    1
    19    10    39    1
    20    10    11    1
    21    11    41    1
    22    12    43    1
    23    12    42    1
    24    12    13    1
    25    13    45    1
    26    13    44    1
    27    13    14    1
    28    14    18   ar
    29    14    15   ar
    30    15    46    1
    31    15    16   ar
    32    16    47    1
    33    16    17   ar
    34    17    19   ar
    35    17    18   ar
    36    18    22   ar
    37    19    20   ar
    38    19    48    1
    39    20    21   ar
    40    20    49    1
    41    21    22   ar
    42    21    23    1
    43    22    50    1
    44    23    51    1
    45    23    24   am
    46    24    26   am
    47    24    25    2
    48    26    52    1
    49    26    27    1
    50    27    54    1
    51    27    53    1
    52    27    29    1
    53    28    29   ar
    54    28    55    1
    55    28    33   ar
    56    29    30   ar
    57    30    31   ar
    58    30    56    1
    59    31    32   ar
    60    31    57    1
    61    32    33   ar
    62    32    58    1
    63    33    59    1
