@<TRIPOS>MOLECULE
/tmp/ewbell/vina_1o5r_1o5r_lig/vina/vina1.pdbqt
 39 42 0 0 0
SMALL
GASTEIGER

@<TRIPOS>ATOM
      1  N4        50.1430   53.7250   20.0480 N.ar  353  INH353     -0.3560
      2  C9        50.4430   53.7350   21.3900 C.ar  353  INH353      0.0920
      3  C10       51.4520   52.8510   21.6360 C.ar  353  INH353      0.0310
      4  C11       51.7880   52.3030   20.3690 C.ar  353  INH353     -0.0080
      5  C12       50.9310   52.8910   19.4090 C.ar  353  INH353      0.0460
      6  C13       52.7560   51.4270   19.9580 C.ar  353  INH353      0.0160
      7  C14       52.8750   51.1120   18.6030 C.ar  353  INH353      0.0300
      8  C15       51.9830   51.6850   17.6920 C.ar  353  INH353      0.0380
      9  C16       51.0390   52.5810   18.1210 C.ar  353  INH353      0.0600
     10  C8        49.0740   54.4890   19.4430 C.3   353  INH353      0.1310
     11  C7        49.1330   55.9250   19.9580 C.3   353  INH353      0.0480
     12  C5        50.0060   56.7990   19.0770 C.3   353  INH353      0.1150
     13  N1        51.3740   56.8670   19.6020 N.pl3 353  INH353     -0.3440
     14  C1        51.9510   57.7510   20.6290 C.2   353  INH353      0.1270
     15  C3        53.3040   57.6150   20.6610 C.2   353  INH353      0.1170
     16  N2        53.6000   56.6650   19.5930 N.pl3 353  INH353     -0.3470
     17  C2        52.4570   56.3310   19.0570 C.3   353  INH353      0.1830
     18  H27       54.5320   56.3250   19.3150 H     353  INH353      0.1670
     19  C4        54.3020   58.1670   21.5580 C.2   353  INH353      0.2670
     20  N3        53.9950   59.0990   22.3150 N.am  353  INH353     -0.3650
     21  H4        53.0650   59.4660   22.3060 H     353  INH353      0.1590
     22  H3        54.6770   59.4860   22.9360 H     353  INH353      0.1590
     23  O1        55.2630   57.6070   21.5650 O.2   353  INH353     -0.2660
     24  C6        49.8890   56.2960   17.6030 C.3   353  INH353      0.1890
     25  O2        48.8210   56.7300   16.6340 O.3   353  INH353     -0.3990
     26  H8        48.8910   57.6660   16.4840 H     353  INH353      0.2090
     27  N5        52.0500   51.5670   16.3920 N.am  353  INH353     -0.3090
     28  H18       52.6160   52.2340   15.9100 H     353  INH353      0.1700
     29  C17       51.4280   50.6290   15.6300 C.2   353  INH353      0.3200
     30  N6        50.4960   50.0250   16.2920 N.am  353  INH353     -0.3390
     31  O3        51.5740   50.6100   14.4320 O.2   353  INH353     -0.2470
     32  H19       50.4660   50.1080   17.2880 H     353  INH353      0.1640
     33  C18       49.4980   49.2350   15.6190 C.3   353  INH353      0.1620
     34  C20       48.2850   49.1600   16.5200 C.ar  353  INH353     -0.0400
     35  C19       47.0390   48.8320   16.0120 C.ar  353  INH353      0.0090
     36  C24       45.9420   48.7870   16.8580 C.ar  353  INH353      0.0010
     37  C23       46.0350   48.9750   18.2010 C.ar  353  INH353      0.0000
     38  C22       47.2960   49.3370   18.7010 C.ar  353  INH353      0.0010
     39  C21       48.4080   49.4340   17.8710 C.ar  353  INH353      0.0090
@<TRIPOS>BOND
     1    31    29    2
     2    33    30    1
     3    33    34    1
     4    29    30   am
     5    29    27   am
     6    28    27    1
     7    35    34   ar
     8    35    36   ar
     9    30    32    1
    10    27     8    1
    11    26    25    1
    12    34    39   ar
    13    25    24    1
    14    36    37   ar
    15    24    12    1
    16     8     9   ar
    17     8     7   ar
    18    39    38   ar
    19     9     5   ar
    20    37    38   ar
    21     7     6   ar
    22    17    16    1
    23    17    13    1
    24    12    13    1
    25    12    11    1
    26    18    16    1
    27     5     1   ar
    28     5     4   ar
    29    10    11    1
    30    10     1    1
    31    16    15    1
    32    13    14    1
    33     6     4   ar
    34     1     2   ar
    35     4     3   ar
    36    14    15    2
    37    15    19    1
    38     2     3   ar
    39    19    23    2
    40    19    20   am
    41    21    20    1
    42    20    22    1
