@<TRIPOS>MOLECULE
/tmp/ewbell/vina_1o5r_1o5r_lig/vina/vina4.pdbqt
 39 42 0 0 0
SMALL
GASTEIGER

@<TRIPOS>ATOM
      1  N4        51.6820   54.8480   20.2750 N.ar  353  INH353     -0.3560
      2  C9        51.6540   54.7720   21.6490 C.ar  353  INH353      0.0920
      3  C10       51.8960   53.4870   22.0360 C.ar  353  INH353      0.0310
      4  C11       52.1040   52.7640   20.8310 C.ar  353  INH353     -0.0080
      5  C12       51.9570   53.6730   19.7570 C.ar  353  INH353      0.0460
      6  C13       52.4510   51.4660   20.5690 C.ar  353  INH353      0.0160
      7  C14       52.6380   51.0530   19.2490 C.ar  353  INH353      0.0300
      8  C15       52.4440   51.9730   18.2150 C.ar  353  INH353      0.0380
      9  C16       52.1240   53.2740   18.5000 C.ar  353  INH353      0.0600
     10  C8        51.3960   56.0470   19.5170 C.3   353  INH353      0.1310
     11  C7        50.0530   56.6150   19.9670 C.3   353  INH353      0.0480
     12  C5        49.0580   56.6700   18.8230 C.3   353  INH353      0.1150
     13  N1        48.4670   58.0080   18.7100 N.pl3 353  INH353     -0.3440
     14  C1        47.7940   58.6520   17.5700 C.2   353  INH353      0.1270
     15  C3        47.5840   59.9710   17.8310 C.2   353  INH353      0.1170
     16  N2        48.1870   60.1830   19.1440 N.pl3 353  INH353     -0.3470
     17  C2        48.6670   59.0310   19.5290 C.3   353  INH353      0.1830
     18  H27       48.2260   61.0700   19.6640 H     353  INH353      0.1670
     19  C4        46.8650   60.9920   17.0920 C.2   353  INH353      0.2670
     20  N3        46.5190   60.7700   15.9230 N.am  353  INH353     -0.3650
     21  H4        46.7340   59.8930   15.4950 H     353  INH353      0.1590
     22  H3        46.0240   61.4700   15.4060 H     353  INH353      0.1590
     23  O1        46.5810   61.8760   17.7030 O.2   353  INH353     -0.2660
     24  C6        49.7580   56.1460   17.5290 C.3   353  INH353      0.1890
     25  O2        49.3810   54.8800   16.8050 O.3   353  INH353     -0.3990
     26  H8        49.5400   54.9880   15.8740 H     353  INH353      0.2090
     27  N5        52.6920   51.7530   16.9510 N.am  353  INH353     -0.3090
     28  H18       53.5040   52.1940   16.5700 H     353  INH353      0.1700
     29  C17       51.9590   50.9870   16.1020 C.2   353  INH353      0.3200
     30  N6        50.7910   50.7250   16.5910 N.am  353  INH353     -0.3390
     31  O3        52.2930   50.8460   14.9510 O.2   353  INH353     -0.2470
     32  H19       50.6190   50.8790   17.5640 H     353  INH353      0.1640
     33  C18       49.7320   50.2140   15.7600 C.3   353  INH353      0.1620
     34  C20       48.5920   49.8030   16.6660 C.ar  353  INH353     -0.0400
     35  C19       47.3970   49.3390   16.1410 C.ar  353  INH353      0.0090
     36  C24       46.3630   48.9850   16.9940 C.ar  353  INH353      0.0010
     37  C23       46.4860   48.9950   18.3480 C.ar  353  INH353      0.0000
     38  C22       47.6900   49.4950   18.8690 C.ar  353  INH353      0.0010
     39  C21       48.7290   49.9010   18.0390 C.ar  353  INH353      0.0090
@<TRIPOS>BOND
     1    31    29    2
     2    22    20    1
     3    21    20    1
     4    33    30    1
     5    33    34    1
     6    26    25    1
     7    20    19   am
     8    29    30   am
     9    29    27   am
    10    35    34   ar
    11    35    36   ar
    12    28    27    1
    13    30    32    1
    14    34    39   ar
    15    25    24    1
    16    27     8    1
    17    36    37   ar
    18    19    23    2
    19    19    15    1
    20    24    12    1
    21    14    15    2
    22    14    13    1
    23    15    16    1
    24    39    38   ar
    25     8     9   ar
    26     8     7   ar
    27    37    38   ar
    28     9     5   ar
    29    13    12    1
    30    13    17    1
    31    12    11    1
    32    16    17    1
    33    16    18    1
    34     7     6   ar
    35    10    11    1
    36    10     1    1
    37     5     1   ar
    38     5     4   ar
    39     1     2   ar
    40     6     4   ar
    41     4     3   ar
    42     2     3   ar
