@<TRIPOS>MOLECULE
/tmp/ewbell/vina_1o5r_1o5r_lig/vina/vina2.pdbqt
 39 42 0 0 0
SMALL
GASTEIGER

@<TRIPOS>ATOM
      1  N4        51.4920   54.6560   20.2790 N.ar  353  INH353     -0.3560
      2  C9        51.5950   54.6850   21.6510 C.ar  353  INH353      0.0920
      3  C10       51.8920   53.4360   22.1100 C.ar  353  INH353      0.0310
      4  C11       51.9950   52.6240   20.9490 C.ar  353  INH353     -0.0080
      5  C12       51.7340   53.4470   19.8280 C.ar  353  INH353      0.0460
      6  C13       52.3350   51.3120   20.7550 C.ar  353  INH353      0.0160
      7  C14       52.4020   50.8000   19.4590 C.ar  353  INH353      0.0300
      8  C15       52.0990   51.6350   18.3810 C.ar  353  INH353      0.0380
      9  C16       51.7880   52.9530   18.5950 C.ar  353  INH353      0.0600
     10  C8        51.1180   55.7900   19.4620 C.3   353  INH353      0.1310
     11  C7        49.7090   56.2370   19.8430 C.3   353  INH353      0.0480
     12  C5        49.5180   57.7260   19.6220 C.3   353  INH353      0.1150
     13  N1        48.7030   57.9760   18.4290 N.pl3 353  INH353     -0.3440
     14  C1        48.6170   57.2220   17.1660 C.2   353  INH353      0.1270
     15  C3        47.8930   57.9190   16.2500 C.2   353  INH353      0.1170
     16  N2        47.5570   59.1690   16.9250 N.pl3 353  INH353     -0.3470
     17  C2        48.0760   59.1030   18.1220 C.3   353  INH353      0.1830
     18  H27       47.0160   59.9520   16.5330 H     353  INH353      0.1670
     19  C4        47.4300   57.5630   14.9220 C.2   353  INH353      0.2670
     20  N3        46.6120   56.6420   14.7860 N.am  353  INH353     -0.3650
     21  H4        46.2750   56.1500   15.5880 H     353  INH353      0.1590
     22  H3        46.2890   56.3890   13.8730 H     353  INH353      0.1590
     23  O1        47.7810   58.2500   14.1210 O.2   353  INH353     -0.2660
     24  C6        48.9700   58.3590   20.9410 C.3   353  INH353      0.1890
     25  O2        49.7970   58.6210   22.1720 O.3   353  INH353     -0.3990
     26  H8        49.4070   59.3300   22.6700 H     353  INH353      0.2090
     27  N5        52.2290   51.3210   17.1190 N.am  353  INH353     -0.3090
     28  H18       53.1420   51.4220   16.7230 H     353  INH353      0.1700
     29  C17       51.2510   50.8700   16.2900 C.2   353  INH353      0.3200
     30  N6        50.0770   51.0690   16.7930 N.am  353  INH353     -0.3390
     31  O3        51.4930   50.5980   15.1400 O.2   353  INH353     -0.2470
     32  H19       49.9880   51.2920   17.7640 H     353  INH353      0.1640
     33  C18       48.8930   50.9780   15.9800 C.3   353  INH353      0.1620
     34  C20       47.9020   50.0950   16.7050 C.ar  353  INH353     -0.0400
     35  C19       47.8680   50.0500   18.0900 C.ar  353  INH353      0.0090
     36  C24       46.9600   49.2190   18.7280 C.ar  353  INH353      0.0010
     37  C23       46.0290   48.4880   18.0590 C.ar  353  INH353      0.0000
     38  C22       46.0930   48.5180   16.6570 C.ar  353  INH353      0.0010
     39  C21       47.0210   49.3060   15.9870 C.ar  353  INH353      0.0090
@<TRIPOS>BOND
     1    22    20    1
     2    23    19    2
     3    20    19   am
     4    20    21    1
     5    19    15    1
     6    31    29    2
     7    33    34    1
     8    33    30    1
     9    39    38   ar
    10    39    34   ar
    11    15    16    1
    12    15    14    2
    13    29    30   am
    14    29    27   am
    15    18    16    1
    16    38    37   ar
    17    34    35   ar
    18    28    27    1
    19    30    32    1
    20    16    17    1
    21    27     8    1
    22    14    13    1
    23    37    36   ar
    24    35    36   ar
    25    17    13    1
    26     8     9   ar
    27     8     7   ar
    28    13    12    1
    29     9     5   ar
    30     7     6   ar
    31    10    11    1
    32    10     1    1
    33    12    11    1
    34    12    24    1
    35     5     1   ar
    36     5     4   ar
    37     1     2   ar
    38     6     4   ar
    39    24    25    1
    40     4     3   ar
    41     2     3   ar
    42    25    26    1
