@<TRIPOS>MOLECULE
/tmp/ewbell/vina_1o5r_1o5r_lig/vina/vina5.pdbqt
 39 42 0 0 0
SMALL
GASTEIGER

@<TRIPOS>ATOM
      1  N4        50.7310   55.3780   20.4490 N.ar  353  INH353     -0.3560
      2  C9        51.9220   55.3050   21.1350 C.ar  353  INH353      0.0920
      3  C10       52.0960   56.4430   21.8640 C.ar  353  INH353      0.0310
      4  C11       50.9360   57.2270   21.6190 C.ar  353  INH353     -0.0080
      5  C12       50.1150   56.5040   20.7220 C.ar  353  INH353      0.0460
      6  C13       50.4990   58.4270   22.1120 C.ar  353  INH353      0.0160
      7  C14       49.2600   58.9290   21.7120 C.ar  353  INH353      0.0300
      8  C15       48.4960   58.2030   20.7940 C.ar  353  INH353      0.0380
      9  C16       48.9400   56.9910   20.3340 C.ar  353  INH353      0.0600
     10  C8        50.2590   54.3740   19.5200 C.3   353  INH353      0.1310
     11  C7        51.4360   53.5080   19.0790 C.3   353  INH353      0.0480
     12  C5        51.2850   52.0760   19.5570 C.3   353  INH353      0.1150
     13  N1        50.9300   51.1900   18.4430 N.pl3 353  INH353     -0.3440
     14  C1        51.2210   51.3150   17.0050 C.2   353  INH353      0.1270
     15  C3        50.5280   50.3790   16.3010 C.2   353  INH353      0.1170
     16  N2        49.7360   49.6790   17.3080 N.pl3 353  INH353     -0.3470
     17  C2        50.0210   50.2250   18.4600 C.3   353  INH353      0.1830
     18  H27       49.0790   48.9040   17.1420 H     353  INH353      0.1670
     19  C4        50.5610   50.0170   14.8970 C.2   353  INH353      0.2670
     20  N3        51.6500   49.8040   14.3450 N.am  353  INH353     -0.3650
     21  H4        52.4990   49.8810   14.8670 H     353  INH353      0.1590
     22  H3        51.6810   49.5550   13.3770 H     353  INH353      0.1590
     23  O1        49.5560   49.8480   14.4500 O.2   353  INH353     -0.2660
     24  C6        52.5760   51.6720   20.3370 C.3   353  INH353      0.1890
     25  O2        53.3340   50.3870   20.1310 O.3   353  INH353     -0.3990
     26  H8        54.0790   50.3600   20.7210 H     353  INH353      0.2090
     27  N5        47.2790   58.4980   20.4210 N.am  353  INH353     -0.3090
     28  H18       46.5360   58.0630   20.9300 H     353  INH353      0.1700
     29  C17       46.9190   59.3340   19.4130 C.2   353  INH353      0.3200
     30  N6        47.9190   59.5920   18.6340 N.am  353  INH353     -0.3390
     31  O3        45.7570   59.5420   19.1660 O.2   353  INH353     -0.2470
     32  H19       48.8480   59.3790   18.9380 H     353  INH353      0.1640
     33  C18       47.7190   60.1800   17.3350 C.3   353  INH353      0.1620
     34  C20       47.3130   59.0740   16.3860 C.ar  353  INH353     -0.0400
     35  C19       47.9150   57.8280   16.4450 C.ar  353  INH353      0.0090
     36  C24       47.5350   56.8380   15.5510 C.ar  353  INH353      0.0010
     37  C23       46.5290   57.0010   14.6520 C.ar  353  INH353      0.0000
     38  C22       45.9480   58.2770   14.5810 C.ar  353  INH353      0.0010
     39  C21       46.3380   59.3040   15.4320 C.ar  353  INH353      0.0090
@<TRIPOS>BOND
     1    22    20    1
     2    20    21    1
     3    20    19   am
     4    23    19    2
     5    38    37   ar
     6    38    39   ar
     7    37    36   ar
     8    19    15    1
     9    39    34   ar
    10    36    35   ar
    11    15    14    2
    12    15    16    1
    13    34    35   ar
    14    34    33    1
    15    14    13    1
    16    18    16    1
    17    16    17    1
    18    33    30    1
    19    13    17    1
    20    13    12    1
    21    30    32    1
    22    30    29   am
    23    11    10    1
    24    11    12    1
    25    31    29    2
    26    29    27   am
    27    10     1    1
    28    12    24    1
    29    25    24    1
    30    25    26    1
    31     9     5   ar
    32     9     8   ar
    33    27     8    1
    34    27    28    1
    35     1     5   ar
    36     1     2   ar
    37     5     4   ar
    38     8     7   ar
    39     2     3   ar
    40     4     3   ar
    41     4     6   ar
    42     7     6   ar
