@<TRIPOS>MOLECULE
/tmp/ewbell/vina_1o5r_1o5r_lig/vina/vina3.pdbqt
 39 42 0 0 0
SMALL
GASTEIGER

@<TRIPOS>ATOM
      1  N4        49.8290   56.2810   18.1520 N.ar  353  INH353     -0.3560
      2  C9        49.0010   57.1980   17.5460 C.ar  353  INH353      0.0920
      3  C10       48.1800   56.5570   16.6670 C.ar  353  INH353      0.0310
      4  C11       48.5200   55.1810   16.7720 C.ar  353  INH353     -0.0080
      5  C12       49.5620   55.0700   17.7210 C.ar  353  INH353      0.0460
      6  C13       48.0070   54.0470   16.2010 C.ar  353  INH353      0.0160
      7  C14       48.5290   52.8010   16.5490 C.ar  353  INH353      0.0300
      8  C15       49.5850   52.7370   17.4620 C.ar  353  INH353      0.0380
      9  C16       50.0650   53.8820   18.0430 C.ar  353  INH353      0.0600
     10  C8        50.8770   56.6200   19.0910 C.3   353  INH353      0.1310
     11  C7        50.3300   56.5100   20.5110 C.3   353  INH353      0.0480
     12  C5        51.4310   56.2090   21.5120 C.3   353  INH353      0.1150
     13  N1        51.7960   54.7890   21.4730 N.pl3 353  INH353     -0.3440
     14  C1        52.2600   53.9610   20.3470 C.2   353  INH353      0.1270
     15  C3        52.2850   52.6500   20.7060 C.2   353  INH353      0.1170
     16  N2        51.7720   52.6360   22.0730 N.pl3 353  INH353     -0.3470
     17  C2        51.5110   53.8760   22.3900 C.3   353  INH353      0.1830
     18  H27       51.6410   51.8080   22.6700 H     353  INH353      0.1670
     19  C4        52.7700   51.4740   20.0080 C.2   353  INH353      0.2670
     20  N3        52.7200   50.3680   20.5650 N.am  353  INH353     -0.3650
     21  H4        52.3490   50.2890   21.4890 H     353  INH353      0.1590
     22  H3        53.0530   49.5530   20.0900 H     353  INH353      0.1590
     23  O1        53.0510   51.6610   18.9480 O.2   353  INH353     -0.2660
     24  C6        52.6110   57.2020   21.2670 C.3   353  INH353      0.1890
     25  O2        53.6970   57.5040   22.2670 O.3   353  INH353     -0.3990
     26  H8        53.8050   56.7620   22.8500 H     353  INH353      0.2090
     27  N5        50.0920   51.6390   17.9580 N.am  353  INH353     -0.3090
     28  H18       51.0850   51.5400   17.9050 H     353  INH353      0.1700
     29  C17       49.4070   50.6200   18.5380 C.2   353  INH353      0.3200
     30  N6        48.1420   50.6950   18.2820 N.am  353  INH353     -0.3390
     31  O3        49.9860   49.6550   18.9750 O.2   353  INH353     -0.2470
     32  H19       47.7620   51.5460   17.9200 H     353  INH353      0.1640
     33  C18       47.2680   49.5730   18.5080 C.3   353  INH353      0.1620
     34  C20       46.8010   49.0730   17.1590 C.ar  353  INH353     -0.0400
     35  C19       47.5320   49.3340   16.0100 C.ar  353  INH353      0.0090
     36  C24       47.0710   48.8780   14.7850 C.ar  353  INH353      0.0010
     37  C23       45.9590   48.1060   14.6540 C.ar  353  INH353      0.0000
     38  C22       45.2110   47.8750   15.8190 C.ar  353  INH353      0.0010
     39  C21       45.6220   48.3570   17.0560 C.ar  353  INH353      0.0090
@<TRIPOS>BOND
     1    37    36   ar
     2    37    38   ar
     3    36    35   ar
     4    38    39   ar
     5    35    34   ar
     6     6     7   ar
     7     6     4   ar
     8     7     8   ar
     9     3     4   ar
    10     3     2   ar
    11     4     5   ar
    12    39    34   ar
    13    34    33    1
    14     8    27    1
    15     8     9   ar
    16     2     1   ar
    17     5     9   ar
    18     5     1   ar
    19    28    27    1
    20    32    30    1
    21    27    29   am
    22     1    10    1
    23    30    33    1
    24    30    29   am
    25    29    31    2
    26    23    19    2
    27    10    11    1
    28    19    20   am
    29    19    15    1
    30    22    20    1
    31    14    15    2
    32    14    13    1
    33    11    12    1
    34    20    21    1
    35    15    16    1
    36    24    12    1
    37    24    25    1
    38    13    12    1
    39    13    17    1
    40    16    17    1
    41    16    18    1
    42    25    26    1
