@<TRIPOS>MOLECULE
./ligand/1h23_lig.pdb
 84 87 0 0 0
SMALL
GASTEIGER

@<TRIPOS>ATOM
      1  C1         4.5220   59.6020   71.6660 C.ar  533  INH533      0.2489
      2  N1         3.7000   58.5110   71.8970 N.ar  533  INH533     -0.3258
      3  O1         5.3310   59.6040   70.7170 O.2   533  INH533     -0.2679
      4  C2         2.5050   59.4210   73.7420 C.ar  533  INH533      0.0194
      5  C3         3.3450   60.6450   73.5970 C.ar  533  INH533     -0.0465
      6  C4         0.6330   57.1930   73.6090 C.3   533  INH533     -0.0423
      7  N2         0.4280   60.3760   74.7650 N.4   533  INH533      0.2325
      8  C5        -0.4130   60.5350   73.4890 C.3   533  INH533     -0.0331
      9  C6         4.3040   60.7580   72.6160 C.ar  533  INH533      0.0032
     10  C7         2.0050   57.0360   72.9280 C.3   533  INH533     -0.0117
     11  C8         1.4770   59.2970   74.8870 C.3   533  INH533      0.0049
     12  C9         0.7840   57.9110   74.9890 C.3   533  INH533     -0.0050
     13  C10       -0.7010   62.0450   73.3950 C.3   533  INH533     -0.0126
     14  C11        1.0830   68.6220   60.9810 C.ar  533  INH533      0.2489
     15  C12        2.7510   58.3750   72.8710 C.ar  533  INH533      0.0275
     16  N3         2.4730   68.5940   61.0220 N.ar  533  INH533     -0.3258
     17  C13        3.2580   68.5600   62.1370 C.ar  533  INH533      0.0275
     18  C14        2.6510   68.5270   63.3920 C.ar  533  INH533      0.0194
     19  C15        1.1680   68.5310   63.4560 C.ar  533  INH533     -0.0465
     20  C16        0.3990   68.5670   62.3320 C.ar  533  INH533      0.0032
     21  O2         0.4940   68.7720   59.9020 O.2   533  INH533     -0.2679
     22  C17        4.7870   68.5540   61.9260 C.3   533  INH533     -0.0117
     23  C18        3.5080   68.5300   64.6550 C.3   533  INH533      0.0049
     24  C19        5.0070   68.2500   64.4180 C.3   533  INH533     -0.0050
     25  C20        5.5200   69.0220   63.1970 C.3   533  INH533     -0.0423
     26  N4         3.0380   67.5970   65.7540 N.4   533  INH533      0.2325
     27  C21        3.1900   66.1310   65.5760 C.3   533  INH533     -0.0331
     28  C22       -0.4650   62.5560   71.9940 C.3   533  INH533     -0.0483
     29  C23        1.0260   62.5860   71.6890 C.3   533  INH533     -0.0529
     30  C24        1.2970   62.4980   70.2080 C.3   533  INH533     -0.0531
     31  C25        2.7810   62.5820   69.9290 C.3   533  INH533     -0.0531
     32  C26        3.3450   63.9720   70.1360 C.3   533  INH533     -0.0531
     33  C27        4.6020   64.2420   69.3260 C.3   533  INH533     -0.0531
     34  C28        4.8080   65.7340   69.1310 C.3   533  INH533     -0.0529
     35  C29        3.9550   66.3340   68.0170 C.3   533  INH533     -0.0483
     36  C30        4.1820   65.6650   66.6480 C.3   533  INH533     -0.0126
     37  H1         3.8140   57.7330   71.2800 H     533  INH533      0.1686
     38  H2         3.1950   61.4740   74.2880 H     533  INH533      0.0624
     39  H3        -0.0260   57.7890   72.9610 H     533  INH533      0.0271
     40  H4         0.1910   56.1980   73.7650 H     533  INH533      0.0271
     41  H5         0.9050   61.2530   74.9030 H     533  INH533      0.2020
     42  H6        -0.2240   60.2260   75.5190 H     533  INH533      0.2020
     43  H7        -1.3510   59.9660   73.5690 H     533  INH533      0.0814
     44  H8         0.1500   60.1920   72.6080 H     533  INH533      0.0814
     45  H9         4.8970   61.6670   72.5250 H     533  INH533      0.0672
     46  H10        2.6080   56.3130   73.4970 H     533  INH533      0.0328
     47  H11        1.8570   56.6640   71.9040 H     533  INH533      0.0328
     48  H12        2.0230   59.4570   75.8280 H     533  INH533      0.0904
     49  H13       -0.2180   58.0520   75.4210 H     533  INH533      0.0323
     50  H14        1.3820   57.2700   75.6530 H     533  INH533      0.0323
     51  H15       -0.0380   62.5810   74.0900 H     533  INH533      0.0317
     52  H16       -1.7490   62.2290   73.6730 H     533  INH533      0.0317
     53  H17        2.9470   68.5990   60.1410 H     533  INH533      0.1686
     54  H18        0.6810   68.5040   64.4290 H     533  INH533      0.0624
     55  H19       -0.6880   68.5560   62.4030 H     533  INH533      0.0672
     56  H20        5.0380   69.2300   61.0960 H     533  INH533      0.0328
     57  H21        5.1120   67.5330   61.6780 H     533  INH533      0.0328
     58  H22        3.4340   69.5520   65.0540 H     533  INH533      0.0904
     59  H23        5.1500   67.1730   64.2490 H     533  INH533      0.0323
     60  H24        5.5760   68.5610   65.3060 H     533  INH533      0.0323
     61  H25        5.3400   70.0970   63.3450 H     533  INH533      0.0271
     62  H26        6.5990   68.8430   63.0810 H     533  INH533      0.0271
     63  H27        3.5460   67.8460   66.5890 H     533  INH533      0.2020
     64  H28        2.0560   67.7760   65.8920 H     533  INH533      0.2020
     65  H29        2.2210   65.6290   65.7110 H     533  INH533      0.0814
     66  H30        3.5820   65.9080   64.5730 H     533  INH533      0.0814
     67  H31       -0.8750   63.5730   71.9040 H     533  INH533      0.0267
     68  H32       -0.9690   61.8930   71.2760 H     533  INH533      0.0267
     69  H33        1.5090   61.7350   72.1900 H     533  INH533      0.0265
     70  H34        1.4490   63.5260   72.0730 H     533  INH533      0.0265
     71  H35        0.7860   63.3280   69.6980 H     533  INH533      0.0265
     72  H36        0.9120   61.5410   69.8270 H     533  INH533      0.0265
     73  H37        2.9590   62.2840   68.8850 H     533  INH533      0.0265
     74  H38        3.3040   61.8880   70.6030 H     533  INH533      0.0265
     75  H39        3.5850   64.0950   71.2020 H     533  INH533      0.0265
     76  H40        2.5790   64.7060   69.8450 H     533  INH533      0.0265
     77  H41        4.5080   63.7590   68.3420 H     533  INH533      0.0265
     78  H42        5.4700   63.8250   69.8570 H     533  INH533      0.0265
     79  H43        5.8670   65.9090   68.8890 H     533  INH533      0.0265
     80  H44        4.5570   66.2440   70.0730 H     533  INH533      0.0265
     81  H45        4.1990   67.4030   67.9280 H     533  INH533      0.0267
     82  H46        2.8950   66.2210   68.2890 H     533  INH533      0.0267
     83  H47        4.0800   64.5770   66.7700 H     533  INH533      0.0317
     84  H48        5.2010   65.9020   66.3080 H     533  INH533      0.0317
@<TRIPOS>BOND
     1     1     2   ar
     2     1     9   ar
     3     1     3    2
     4     2    15   ar
     5     2    37    1
     6     4    15   ar
     7     4     5   ar
     8     4    11    1
     9     5     9   ar
    10     5    38    1
    11     6    40    1
    12     6    39    1
    13     6    12    1
    14     6    10    1
    15     7    11    1
    16     7    42    1
    17     7    41    1
    18     7     8    1
    19     8    44    1
    20     8    43    1
    21     8    13    1
    22     9    45    1
    23    10    47    1
    24    10    46    1
    25    10    15    1
    26    11    48    1
    27    11    12    1
    28    12    50    1
    29    12    49    1
    30    13    52    1
    31    13    51    1
    32    13    28    1
    33    14    16   ar
    34    14    21    2
    35    14    20   ar
    36    16    17   ar
    37    16    53    1
    38    17    18   ar
    39    17    22    1
    40    18    23    1
    41    18    19   ar
    42    19    20   ar
    43    19    54    1
    44    20    55    1
    45    22    57    1
    46    22    56    1
    47    22    25    1
    48    23    26    1
    49    23    58    1
    50    23    24    1
    51    24    25    1
    52    24    60    1
    53    24    59    1
    54    25    62    1
    55    25    61    1
    56    26    27    1
    57    26    64    1
    58    26    63    1
    59    27    36    1
    60    27    66    1
    61    27    65    1
    62    28    68    1
    63    28    67    1
    64    28    29    1
    65    29    70    1
    66    29    69    1
    67    29    30    1
    68    30    72    1
    69    30    71    1
    70    30    31    1
    71    31    74    1
    72    31    73    1
    73    31    32    1
    74    32    76    1
    75    32    75    1
    76    32    33    1
    77    33    78    1
    78    33    77    1
    79    33    34    1
    80    34    80    1
    81    34    79    1
    82    34    35    1
    83    35    82    1
    84    35    81    1
    85    35    36    1
    86    36    84    1
    87    36    83    1
