@<TRIPOS>MOLECULE
/tmp/ewbell/vina_1h23_1h23_lig/vina/vina1.pdbqt
 42 45 0 0 0
SMALL
GASTEIGER

@<TRIPOS>ATOM
      1  C25        4.5270   63.2330   70.8080 C.3   533  INH533      0.0000
      2  C24        4.1720   64.1570   69.6640 C.3   533  INH533      0.0000
      3  C23        5.3920   64.8970   69.1770 C.3   533  INH533      0.0000
      4  C22        5.1090   65.6760   67.9010 C.3   533  INH533      0.0020
      5  C10        3.9800   65.0290   67.1330 C.3   533  INH533      0.0270
      6  C5         3.0960   66.0900   66.4510 C.3   533  INH533      0.2330
      7  N2         3.8660   66.4830   65.1810 N.4   533  INH533     -0.0670
      8  H6         3.4410   65.9740   64.4220 H     533  INH533      0.2770
      9  H5         4.8120   66.1640   65.3120 H     533  INH533      0.2770
     10  C8         3.9590   67.9200   64.7300 C.3   533  INH533      0.2200
     11  C2         2.9330   68.1960   63.6100 C.ar  533  INH533     -0.0050
     12  C12        3.3210   68.6720   62.3710 C.ar  533  INH533      0.0200
     13  C3         1.4700   68.0520   63.8600 C.ar  533  INH533      0.0170
     14  N1         2.3770   68.9420   61.4210 N.ar  533  INH533     -0.3270
     15  C7         4.7840   68.9190   61.9820 C.3   533  INH533      0.0580
     16  C1         1.0010   68.8310   61.5430 C.ar  533  INH533      0.2450
     17  H1         2.7180   69.2560   60.5360 H     533  INH533      0.1690
     18  C6         0.5340   68.3410   62.8940 C.ar  533  INH533      0.0750
     19  O1         0.2510   69.0860   60.5790 O.2   533  INH533     -0.2680
     20  C4         5.7380   68.0640   62.8360 C.3   533  INH533      0.0080
     21  C9         5.4300   68.2510   64.3570 C.3   533  INH533      0.0380
     22  C26        4.3290   61.7700   70.4710 C.3   533  INH533      0.0000
     23  C27        3.6900   60.9720   71.5950 C.3   533  INH533      0.0000
     24  C28        2.1760   60.9980   71.4840 C.3   533  INH533      0.0000
     25  C29        1.5490   62.3240   71.9070 C.3   533  INH533      0.0020
     26  C30        0.7310   62.9960   70.7890 C.3   533  INH533      0.0270
     27  C21        0.5160   64.4980   71.0160 C.3   533  INH533      0.2330
     28  N4         1.1240   65.1880   69.8510 N.4   533  INH533     -0.0670
     29  H28        2.1150   65.0110   69.8880 H     533  INH533      0.2770
     30  H27        0.7370   64.7630   69.0220 H     533  INH533      0.2770
     31  C18        0.9470   66.6870   69.7020 C.3   533  INH533      0.2200
     32  C14       -0.0600   67.1190   68.6400 C.ar  533  INH533     -0.0050
     33  C13        0.2260   68.2020   67.8080 C.ar  533  INH533      0.0200
     34  C15       -1.3700   66.4390   68.4840 C.ar  533  INH533      0.0170
     35  N3        -0.7030   68.5940   66.8890 N.ar  533  INH533     -0.3270
     36  C17        1.5500   68.9930   67.8580 C.3   533  INH533      0.0580
     37  C11       -1.9600   68.0370   66.6830 C.ar  533  INH533      0.2450
     38  H17       -0.4530   69.3630   66.3000 H     533  INH533      0.1690
     39  O2        -2.7560   68.5650   65.8940 O.2   533  INH533     -0.2680
     40  C16       -2.2870   66.8460   67.5620 C.ar  533  INH533      0.0750
     41  C20        2.2560   68.7990   69.2130 C.3   533  INH533      0.0080
     42  C19        2.3510   67.3070   69.5510 C.3   533  INH533      0.0380
@<TRIPOS>BOND
     1    17    14    1
     2    19    16    2
     3    14    16   ar
     4    14    12   ar
     5    16    18   ar
     6    15    12    1
     7    15    20    1
     8    12    11   ar
     9    20    21    1
    10    18    13   ar
    11    11    13   ar
    12    11    10    1
    13    21    10    1
    14     8     7    1
    15    10     7    1
    16     7     9    1
    17     7     6    1
    18    39    37    2
    19    38    35    1
    20     6     5    1
    21    37    35   ar
    22    37    40   ar
    23    35    33   ar
    24     5     4    1
    25    40    34   ar
    26    33    36    1
    27    33    32   ar
    28    36    41    1
    29     4     3    1
    30    34    32   ar
    31    32    31    1
    32    30    28    1
    33     3     2    1
    34    41    42    1
    35    42    31    1
    36     2     1    1
    37    31    28    1
    38    28    29    1
    39    28    27    1
    40    22     1    1
    41    22    23    1
    42    26    27    1
    43    26    25    1
    44    24    23    1
    45    24    25    1
