@<TRIPOS>MOLECULE
/tmp/ewbell/vina_1h23_1h23_lig/vina/vina3.pdbqt
 42 45 0 0 0
SMALL
GASTEIGER

@<TRIPOS>ATOM
      1  C25        0.7220   64.6550   71.2770 C.3   533  INH533      0.0000
      2  C24        0.1870   65.9790   70.7780 C.3   533  INH533      0.0000
      3  C23        0.7160   66.2830   69.3990 C.3   533  INH533      0.0000
      4  C22       -0.2970   67.0480   68.5600 C.3   533  INH533      0.0020
      5  C10        0.2560   67.3030   67.1780 C.3   533  INH533      0.0270
      6  C5         1.4960   68.2160   67.2390 C.3   533  INH533      0.2330
      7  N2         2.5700   67.4700   66.4310 N.4   533  INH533     -0.0670
      8  H6         2.7200   66.5910   66.9020 H     533  INH533      0.2770
      9  H5         3.4060   68.0290   66.4870 H     533  INH533      0.2770
     10  C8         2.3720   67.1430   64.9710 C.3   533  INH533      0.2200
     11  C2         3.1800   65.8850   64.5920 C.ar  533  INH533     -0.0050
     12  C12        4.1260   65.9060   63.5820 C.ar  533  INH533      0.0200
     13  C3         2.8980   64.5700   65.2370 C.ar  533  INH533      0.0170
     14  N1         4.7900   64.7600   63.2500 N.ar  533  INH533     -0.3270
     15  C7         4.4880   67.1700   62.7920 C.3   533  INH533      0.0580
     16  C1         4.6170   63.4960   63.7910 C.ar  533  INH533      0.2450
     17  H1         5.4810   64.8420   62.5320 H     533  INH533      0.1690
     18  C6         3.5710   63.4240   64.8790 C.ar  533  INH533      0.0750
     19  O1         5.3160   62.5360   63.4100 O.2   533  INH533     -0.2680
     20  C4         4.1590   68.4410   63.5970 C.3   533  INH533      0.0080
     21  C9         2.6850   68.3990   64.1130 C.3   533  INH533      0.0380
     22  C26       -0.0250   63.4640   70.7130 C.3   533  INH533      0.0000
     23  C27        0.1470   62.1980   71.5350 C.3   533  INH533      0.0000
     24  C28        1.2460   62.3690   72.5680 C.3   533  INH533      0.0000
     25  C29        1.2700   61.2750   73.6320 C.3   533  INH533      0.0020
     26  C30        2.6400   61.1220   74.3180 C.3   533  INH533      0.0270
     27  C21        3.5920   60.1850   73.5650 C.3   533  INH533      0.2330
     28  N4         4.4630   61.0540   72.7330 N.4   533  INH533     -0.0670
     29  H28        4.2410   62.0070   72.9720 H     533  INH533      0.2770
     30  H27        5.4160   60.8530   72.9960 H     533  INH533      0.2770
     31  C18        4.3890   60.9470   71.2220 C.3   533  INH533      0.2200
     32  C14        4.2590   62.2760   70.4840 C.ar  533  INH533     -0.0050
     33  C13        3.3930   62.3880   69.3960 C.ar  533  INH533      0.0200
     34  C15        5.0640   63.4630   70.8670 C.ar  533  INH533      0.0170
     35  N3         3.3190   63.5750   68.7280 N.ar  533  INH533     -0.3270
     36  C17        2.4950   61.2360   68.8960 C.3   533  INH533      0.0580
     37  C11        4.0440   64.7310   68.9960 C.ar  533  INH533      0.2450
     38  H17        2.6730   63.6200   67.9650 H     533  INH533      0.1690
     39  O2         3.9680   65.7060   68.2370 O.2   533  INH533     -0.2680
     40  C16        4.9780   64.6410   70.1870 C.ar  533  INH533      0.0750
     41  C20        3.0300   59.8740   69.3740 C.3   533  INH533      0.0080
     42  C19        3.2980   59.9110   70.8830 C.3   533  INH533      0.0380
@<TRIPOS>BOND
     1    17    14    1
     2    15    12    1
     3    15    20    1
     4    14    12   ar
     5    14    16   ar
     6    19    16    2
     7    12    11   ar
     8    20    21    1
     9    16    18   ar
    10    21    10    1
    11    11    10    1
    12    11    13   ar
    13    18    13   ar
    14    10     7    1
    15     7     9    1
    16     7     8    1
    17     7     6    1
    18     5     6    1
    19     5     4    1
    20    38    35    1
    21    39    37    2
    22     4     3    1
    23    35    37   ar
    24    35    33   ar
    25    36    41    1
    26    36    33    1
    27    37    40   ar
    28    41    42    1
    29    33    32   ar
    30     3     2    1
    31    40    34   ar
    32    32    34   ar
    33    32    31    1
    34    22     1    1
    35    22    23    1
    36     2     1    1
    37    42    31    1
    38    31    28    1
    39    23    24    1
    40    24    25    1
    41    28    29    1
    42    28    30    1
    43    28    27    1
    44    27    26    1
    45    25    26    1
