@<TRIPOS>MOLECULE
/tmp/ewbell/vina_1h23_1h23_lig/vina/vina2.pdbqt
 42 45 0 0 0
SMALL
GASTEIGER

@<TRIPOS>ATOM
      1  C25        4.3300   65.4730   69.1560 C.3   533  INH533      0.0000
      2  C24        3.2650   66.2140   69.9330 C.3   533  INH533      0.0000
      3  C23        1.9710   66.2530   69.1610 C.3   533  INH533      0.0000
      4  C22        1.3830   67.6550   69.1120 C.3   533  INH533      0.0020
      5  C10        1.2970   68.1360   67.6830 C.3   533  INH533      0.0270
      6  C5         2.6210   68.7840   67.2370 C.3   533  INH533      0.2330
      7  N2         3.3220   67.7040   66.3980 N.4   533  INH533     -0.0670
      8  H6         3.3160   66.8630   66.9550 H     533  INH533      0.2770
      9  H5         4.2710   68.0150   66.2700 H     533  INH533      0.2770
     10  C8         2.8120   67.3130   65.0330 C.3   533  INH533      0.2200
     11  C2         3.4350   65.9720   64.5930 C.ar  533  INH533     -0.0050
     12  C12        4.1580   65.8560   63.4200 C.ar  533  INH533      0.0200
     13  C3         3.1940   64.7240   65.3740 C.ar  533  INH533      0.0170
     14  N1         4.6580   64.6410   63.0470 N.ar  533  INH533     -0.3270
     15  C7         4.4460   67.0390   62.4860 C.3   533  INH533      0.0580
     16  C1         4.5060   63.4280   63.7010 C.ar  533  INH533      0.2450
     17  H1         5.1960   64.6240   62.2040 H     533  INH533      0.1690
     18  C6         3.6970   63.5070   64.9750 C.ar  533  INH533      0.0750
     19  O1         5.0440   62.3930   63.2610 O.2   533  INH533     -0.2680
     20  C4         4.3770   68.3760   63.2460 C.3   533  INH533      0.0080
     21  C9         3.0370   68.4880   64.0410 C.3   533  INH533      0.0380
     22  C26        5.2020   64.5980   70.0320 C.3   533  INH533      0.0000
     23  C27        4.5170   63.3200   70.4840 C.3   533  INH533      0.0000
     24  C28        3.6400   62.7570   69.3790 C.3   533  INH533      0.0000
     25  C29        3.0010   61.4140   69.7210 C.3   533  INH533      0.0020
     26  C30        4.0090   60.2500   69.7530 C.3   533  INH533      0.0270
     27  C21        4.1990   59.6530   71.1530 C.3   533  INH533      0.2330
     28  N4         3.0500   60.1240   71.9680 N.4   533  INH533     -0.0670
     29  H28        3.4100   60.3480   72.8810 H     533  INH533      0.2770
     30  H27        2.7020   60.9620   71.5280 H     533  INH533      0.2770
     31  C18        1.8610   59.2050   72.1730 C.3   533  INH533      0.2200
     32  C14        0.6150   59.8760   72.7450 C.ar  533  INH533     -0.0050
     33  C13       -0.1400   59.2260   73.7220 C.ar  533  INH533      0.0200
     34  C15        0.1510   61.2000   72.2630 C.ar  533  INH533      0.0170
     35  N3        -1.2700   59.8280   74.1930 N.ar  533  INH533     -0.3270
     36  C17        0.2300   57.8510   74.3160 C.3   533  INH533      0.0580
     37  C11       -1.7960   61.0510   73.7900 C.ar  533  INH533      0.2450
     38  H17       -1.7750   59.3380   74.9050 H     533  INH533      0.1690
     39  O2        -2.8960   61.4280   74.2140 O.2   533  INH533     -0.2680
     40  C16       -0.9820   61.7850   72.7430 C.ar  533  INH533      0.0750
     41  C20        1.1800   57.0840   73.3770 C.3   533  INH533      0.0080
     42  C19        2.3550   57.9780   72.9670 C.3   533  INH533      0.0380
@<TRIPOS>BOND
     1    17    14    1
     2    15    20    1
     3    15    12    1
     4    14    12   ar
     5    14    16   ar
     6    20    21    1
     7    19    16    2
     8    12    11   ar
     9    16    18   ar
    10    21    10    1
    11    11    10    1
    12    11    13   ar
    13    18    13   ar
    14    10     7    1
    15     9     7    1
    16     7     8    1
    17     7     6    1
    18     6     5    1
    19     5     4    1
    20     4     3    1
    21     1     2    1
    22     1    22    1
    23     3     2    1
    24    24    25    1
    25    24    23    1
    26    25    26    1
    27    26    27    1
    28    22    23    1
    29    27    28    1
    30    30    28    1
    31    28    31    1
    32    28    29    1
    33    31    32    1
    34    31    42    1
    35    34    40   ar
    36    34    32   ar
    37    40    37   ar
    38    32    33   ar
    39    42    41    1
    40    41    36    1
    41    33    35   ar
    42    33    36    1
    43    37    35   ar
    44    37    39    2
    45    35    38    1
