@<TRIPOS>MOLECULE
/tmp/ewbell/vina_1h23_1h23_lig/vina/vina5.pdbqt
 42 45 0 0 0
SMALL
GASTEIGER

@<TRIPOS>ATOM
      1  C25        0.9320   64.6500   70.9500 C.3   533  INH533      0.0000
      2  C24        0.3640   66.0050   70.5920 C.3   533  INH533      0.0000
      3  C23        0.7950   66.4150   69.2060 C.3   533  INH533      0.0000
      4  C22       -0.3450   67.0500   68.4240 C.3   533  INH533      0.0020
      5  C10        0.1970   68.0400   67.4200 C.3   533  INH533      0.0270
      6  C5         0.3070   67.4050   66.0210 C.3   533  INH533      0.2330
      7  N2         1.8080   67.1350   65.8310 N.4   533  INH533     -0.0670
      8  H6         1.8810   66.3960   65.1490 H     533  INH533      0.2770
      9  H5         2.1530   66.8080   66.7200 H     533  INH533      0.2770
     10  C8         2.7530   68.2230   65.3830 C.3   533  INH533      0.2200
     11  C2         2.8520   68.2420   63.8430 C.ar  533  INH533     -0.0050
     12  C12        4.0640   68.0970   63.1910 C.ar  533  INH533      0.0200
     13  C3         1.6520   68.5180   63.0020 C.ar  533  INH533      0.0170
     14  N1         4.1130   68.1610   61.8270 N.ar  533  INH533     -0.3270
     15  C7         5.3920   67.8580   63.9210 C.3   533  INH533      0.0580
     16  C1         3.0640   68.3980   60.9540 C.ar  533  INH533      0.2450
     17  H1         5.0110   68.0210   61.4110 H     533  INH533      0.1690
     18  C6         1.7250   68.5910   61.6300 C.ar  533  INH533      0.0750
     19  O1         3.2460   68.4020   59.7210 O.2   533  INH533     -0.2680
     20  C4         5.1580   67.2310   65.3080 C.3   533  INH533      0.0080
     21  C9         4.1120   68.0640   66.1180 C.3   533  INH533      0.0380
     22  C26        0.0750   63.5010   70.4640 C.3   533  INH533      0.0000
     23  C27        0.2050   62.2470   71.3120 C.3   533  INH533      0.0000
     24  C28        1.0070   62.5270   72.5700 C.3   533  INH533      0.0000
     25  C29        1.1500   61.3200   73.4930 C.3   533  INH533      0.0020
     26  C30        2.4470   61.3390   74.3240 C.3   533  INH533      0.0270
     27  C21        3.5290   60.3990   73.7770 C.3   533  INH533      0.2330
     28  N4         4.3780   61.2190   72.8770 N.4   533  INH533     -0.0670
     29  H28        4.0760   62.1740   72.9770 H     533  INH533      0.2770
     30  H27        5.3270   61.1290   73.2060 H     533  INH533      0.2770
     31  C18        4.3950   60.9130   71.3910 C.3   533  INH533      0.2200
     32  C14        4.1520   62.1120   70.4800 C.ar  533  INH533     -0.0050
     33  C13        3.3360   61.9800   69.3570 C.ar  533  INH533      0.0200
     34  C15        4.7960   63.4250   70.7310 C.ar  533  INH533      0.0170
     35  N3         3.1620   63.0560   68.5350 N.ar  533  INH533     -0.3270
     36  C17        2.6020   60.6760   68.9810 C.3   533  INH533      0.0580
     37  C11        3.7370   64.3140   68.6740 C.ar  533  INH533      0.2450
     38  H17        2.5550   62.9260   67.7500 H     533  INH533      0.1690
     39  O2         3.5900   65.1690   67.7900 O.2   533  INH533     -0.2680
     40  C16        4.6130   64.4890   69.8990 C.ar  533  INH533      0.0750
     41  C20        3.2630   59.4590   69.6540 C.3   533  INH533      0.0080
     42  C19        3.4470   59.7190   71.1540 C.3   533  INH533      0.0380
@<TRIPOS>BOND
     1    19    16    2
     2    16    18   ar
     3    16    14   ar
     4    17    14    1
     5    18    13   ar
     6    14    12   ar
     7    13    11   ar
     8    12    11   ar
     9    12    15    1
    10    11    10    1
    11    15    20    1
    12     8     7    1
    13    20    21    1
    14    10     7    1
    15    10    21    1
    16     7     6    1
    17     7     9    1
    18     6     5    1
    19     5     4    1
    20    38    35    1
    21    39    37    2
    22     4     3    1
    23    35    37   ar
    24    35    33   ar
    25    37    40   ar
    26    36    33    1
    27    36    41    1
    28     3     2    1
    29    33    32   ar
    30    41    42    1
    31    40    34   ar
    32    22     1    1
    33    22    23    1
    34    32    34   ar
    35    32    31    1
    36     2     1    1
    37    42    31    1
    38    23    24    1
    39    31    28    1
    40    24    25    1
    41    28    29    1
    42    28    30    1
    43    28    27    1
    44    25    26    1
    45    27    26    1
