@<TRIPOS>MOLECULE
/tmp/ewbell/vina_1h23_1h23_lig/vina/vina4.pdbqt
 42 45 0 0 0
SMALL
GASTEIGER

@<TRIPOS>ATOM
      1  C25        3.7090   63.7010   70.1240 C.3   533  INH533      0.0000
      2  C24        4.4820   64.8990   69.6200 C.3   533  INH533      0.0000
      3  C23        4.5290   64.9100   68.1130 C.3   533  INH533      0.0000
      4  C22        4.4920   66.3250   67.5560 C.3   533  INH533      0.0020
      5  C10        3.3120   67.0790   68.1220 C.3   533  INH533      0.0270
      6  C5         2.1660   67.1630   67.0960 C.3   533  INH533      0.2330
      7  N2         2.8650   67.1710   65.7280 N.4   533  INH533     -0.0670
      8  H6         2.3070   66.5930   65.1190 H     533  INH533      0.2770
      9  H5         3.7660   66.7420   65.8670 H     533  INH533      0.2770
     10  C8         3.1170   68.4580   64.9800 C.3   533  INH533      0.2200
     11  C2         2.3850   68.4370   63.6220 C.ar  533  INH533     -0.0050
     12  C12        3.0630   68.6050   62.4280 C.ar  533  INH533      0.0200
     13  C3         0.8980   68.3330   63.5550 C.ar  533  INH533      0.0170
     14  N1         2.3710   68.6220   61.2500 N.ar  533  INH533     -0.3270
     15  C7         4.5850   68.7750   62.3390 C.3   533  INH533      0.0580
     16  C1         1.0010   68.5210   61.0740 C.ar  533  INH533      0.2450
     17  H1         2.9180   68.7180   60.4190 H     533  INH533      0.1690
     18  C6         0.2190   68.3640   62.3580 C.ar  533  INH533      0.0750
     19  O1         0.5000   68.5220   59.9320 O.2   533  INH533     -0.2680
     20  C4         5.2840   68.1690   63.5700 C.3   533  INH533      0.0080
     21  C9         4.6460   68.7130   64.8880 C.3   533  INH533      0.0380
     22  C26        2.3470   64.0640   70.6770 C.3   533  INH533      0.0000
     23  C27        1.2420   63.1190   70.2350 C.3   533  INH533      0.0000
     24  C28        0.8380   62.1940   71.3690 C.3   533  INH533      0.0000
     25  C29       -0.5750   62.4360   71.8910 C.3   533  INH533      0.0020
     26  C30       -0.7910   61.9250   73.3270 C.3   533  INH533      0.0270
     27  C21       -0.6760   60.4000   73.4500 C.3   533  INH533      0.2330
     28  N4         0.4300   60.1400   74.4060 N.4   533  INH533     -0.0670
     29  H28        0.9670   60.9900   74.4730 H     533  INH533      0.2770
     30  H27        0.0070   59.9380   75.2980 H     533  INH533      0.2770
     31  C18        1.4110   59.0190   74.1170 C.3   533  INH533      0.2200
     32  C14        2.5730   59.3940   73.2030 C.ar  533  INH533     -0.0050
     33  C13        2.9970   58.5070   72.2140 C.ar  533  INH533      0.0200
     34  C15        3.3050   60.6760   73.3580 C.ar  533  INH533      0.0170
     35  N3         4.0620   58.8460   71.4310 N.ar  533  INH533     -0.3270
     36  C17        2.3240   57.1450   71.9400 C.3   533  INH533      0.0580
     37  C11        4.8210   60.0080   71.5140 C.ar  533  INH533      0.2450
     38  H17        4.3230   58.1910   70.7220 H     533  INH533      0.1690
     39  O2         5.8380   60.1400   70.8190 O.2   533  INH533     -0.2680
     40  C16        4.3680   60.9980   72.5680 C.ar  533  INH533      0.0750
     41  C20        1.5170   56.6750   73.1650 C.3   533  INH533      0.0080
     42  C19        0.5930   57.7960   73.6520 C.3   533  INH533      0.0380
@<TRIPOS>BOND
     1    19    16    2
     2    17    14    1
     3    16    14   ar
     4    16    18   ar
     5    14    12   ar
     6    15    12    1
     7    15    20    1
     8    18    13   ar
     9    12    11   ar
    10    13    11   ar
    11    20    21    1
    12    11    10    1
    13    21    10    1
    14    10     7    1
    15     8     7    1
    16     7     9    1
    17     7     6    1
    18     6     5    1
    19     4     3    1
    20     4     5    1
    21     3     2    1
    22     2     1    1
    23     1    22    1
    24    23    22    1
    25    23    24    1
    26    38    35    1
    27    39    37    2
    28    24    25    1
    29    35    37   ar
    30    35    33   ar
    31    37    40   ar
    32    25    26    1
    33    36    33    1
    34    36    41    1
    35    33    32   ar
    36    40    34   ar
    37    41    42    1
    38    32    34   ar
    39    32    31    1
    40    26    27    1
    41    27    28    1
    42    42    31    1
    43    31    28    1
    44    28    29    1
    45    28    30    1
