@<TRIPOS>MOLECULE
./ligand/2nn1_lig.pdb
 24 24 0 0 0
SMALL
GASTEIGER

@<TRIPOS>ATOM
      1  C1       -17.2850   -0.1480  -19.5040 C.ar  262  INH262      0.1066
      2  C2       -17.8840    1.1500  -19.6590 C.ar  262  INH262     -0.0350
      3  C3       -18.4910    1.7660  -18.5530 C.ar  262  INH262     -0.0567
      4  C4       -18.5120    1.1130  -17.2980 C.ar  262  INH262     -0.0467
      5  C5       -17.8940   -0.1620  -17.1970 C.ar  262  INH262     -0.0567
      6  C6       -17.2860   -0.7990  -18.2620 C.ar  262  INH262     -0.0350
      7  S1       -16.5200   -0.9610  -20.8420 S.O2  262  INH262      0.0723
      8  O1       -16.1010    0.0900  -21.7320 O.2   262  INH262     -0.1519
      9  O2       -17.4980   -1.9070  -21.3580 O.2   262  INH262     -0.1519
     10  N1       -15.2840   -1.7440  -20.2100 N.3   262  INH262     -0.1053
     11  C7       -19.1420    1.7170  -16.1040 C.3   262  INH262     -0.0175
     12  C8       -18.1470    1.4970  -14.9570 C.3   262  INH262      0.0531
     13  C9       -18.3600    2.0250  -13.5650 C.2   262  INH262      0.3563
     14  O3       -19.0640    3.0400  -13.3820 O.co2 262  INH262     -0.2464
     15  O4       -17.8010    1.4650  -12.5880 O.co2 262  INH262     -0.2464
     16  H1       -17.8670    1.6490  -20.6210 H     262  INH262      0.0637
     17  H2       -18.9450    2.7440  -18.6610 H     262  INH262      0.0621
     18  H3       -17.9000   -0.6610  -16.2350 H     262  INH262      0.0621
     19  H4       -16.8240   -1.7720  -18.1410 H     262  INH262      0.0637
     20  H5       -14.6870   -2.2920  -20.7960 H     262  INH262      0.1694
     21  H6       -20.0990    1.2220  -15.8830 H     262  INH262      0.0318
     22  H7       -19.3140    2.7920  -16.2630 H     262  INH262      0.0318
     23  H8       -17.1930    1.9250  -15.2990 H     262  INH262      0.0382
     24  H9       -18.0430    0.4070  -14.8530 H     262  INH262      0.0382
@<TRIPOS>BOND
     1     1     7    1
     2     1     6   ar
     3     1     2   ar
     4     2    16    1
     5     2     3   ar
     6     3    17    1
     7     3     4   ar
     8     4    11    1
     9     4     5   ar
    10     5    18    1
    11     5     6   ar
    12     6    19    1
    13     7    10    1
    14     7     9    2
    15     7     8    2
    16    10    20    1
    17    11    22    1
    18    11    21    1
    19    11    12    1
    20    12    24    1
    21    12    23    1
    22    12    13    1
    23    13    15   ar
    24    13    14   ar
