@<TRIPOS>MOLECULE
/tmp/ewbell/vina_2nn1_2nn1_lig/vina/vina4.pdbqt
 18 18 0 0 0
SMALL
GASTEIGER

@<TRIPOS>ATOM
      1  C1       -19.9750    1.7810  -17.4450 C.ar  262  INH262      0.0740
      2  C2       -18.6630    1.2350  -17.2270 C.ar  262  INH262      0.0250
      3  C3       -17.7920    1.0760  -18.3160 C.ar  262  INH262      0.0090
      4  C4       -18.2050    1.4490  -19.6170 C.ar  262  INH262     -0.0580
      5  C5       -19.5070    1.9950  -19.7750 C.ar  262  INH262      0.0090
      6  C6       -20.3910    2.1680  -18.7270 C.ar  262  INH262      0.0250
      7  S1       -21.0990    1.9990  -16.1310 S.O2  262  INH262      0.2390
      8  O2       -20.7040    3.2260  -15.4560 O.2   262  INH262     -0.2060
      9  O1       -22.4020    1.9840  -16.7430 O.2   262  INH262     -0.2060
     10  N1       -20.8700    0.7490  -15.1680 N.3   262  INH262     -0.2250
     11  H5       -20.0580    0.7090  -14.5860 H     262  INH262      0.1360
     12  H        -20.8470   -0.0800  -15.7620 H     262  INH262      0.1360
     13  C7       -17.3280    1.2970  -20.7980 C.3   262  INH262      0.0490
     14  C8       -17.5310   -0.1460  -21.2800 C.3   262  INH262      0.1140
     15  C9       -16.6800   -1.2980  -20.8220 C.2   262  INH262      0.1390
     16  O4       -15.6720   -1.6410  -21.4910 O.2   262  INH262     -0.6500
     17  O3       -16.9530   -1.8930  -19.7590 O.3   262  INH262     -0.7760
     18  H        -17.6200   -2.5520  -19.7490 H     262  INH262      0.1670
@<TRIPOS>BOND
     1    16    15    2
     2    14    15    1
     3    14    13    1
     4    15    17    1
     5    13     4    1
     6     5     4   ar
     7     5     6   ar
     8    17    18    1
     9     4     3   ar
    10     6     1   ar
    11     3     2   ar
    12     1     2   ar
    13     1     7    1
    14     9     7    2
    15     7     8    2
    16     7    10    1
    17    12    10    1
    18    10    11    1
