@<TRIPOS>MOLECULE
/tmp/ewbell/vina_2nn1_2nn1_lig/vina/vina1.pdbqt
 18 18 0 0 0
SMALL
GASTEIGER

@<TRIPOS>ATOM
      1  C1       -17.4800    0.0000  -19.4920 C.ar  262  INH262      0.0740
      2  C2       -17.6220   -0.5120  -18.1560 C.ar  262  INH262      0.0250
      3  C3       -18.3320    0.2360  -17.2030 C.ar  262  INH262      0.0090
      4  C4       -18.9010    1.4820  -17.5560 C.ar  262  INH262     -0.0580
      5  C5       -18.7420    1.9350  -18.8930 C.ar  262  INH262      0.0090
      6  C6       -18.0520    1.2270  -19.8590 C.ar  262  INH262      0.0250
      7  S1       -16.6080   -0.8830  -20.7150 S.O2  262  INH262      0.2390
      8  O2       -17.5930   -1.6960  -21.4120 O.2   262  INH262     -0.2060
      9  O1       -15.9280    0.1210  -21.4910 O.2   262  INH262     -0.2060
     10  N1       -15.5940   -1.8190  -19.9180 N.3   262  INH262     -0.2250
     11  H5       -15.7360   -2.8090  -19.8990 H     262  INH262      0.1360
     12  H        -15.6010   -1.5030  -18.9490 H     262  INH262      0.1360
     13  C7       -19.6530    2.3100  -16.5890 C.3   262  INH262      0.0490
     14  C8       -21.1350    2.0870  -16.9210 C.3   262  INH262      0.1140
     15  C9       -21.9490    0.9570  -16.3530 C.2   262  INH262      0.1390
     16  O4       -22.9230    0.4960  -17.0010 O.2   262  INH262     -0.6500
     17  O3       -21.6370    0.4520  -15.2540 O.3   262  INH262     -0.7760
     18  H        -20.7370    0.4110  -14.9960 H     262  INH262      0.1670
@<TRIPOS>BOND
     1     9     7    2
     2     8     7    2
     3     7    10    1
     4     7     1    1
     5    10    11    1
     6    10    12    1
     7     6     1   ar
     8     6     5   ar
     9     1     2   ar
    10     5     4   ar
    11     2     3   ar
    12     4     3   ar
    13     4    13    1
    14    16    15    2
    15    14    13    1
    16    14    15    1
    17    15    17    1
    18    17    18    1
