@<TRIPOS>MOLECULE
/tmp/ewbell/vina_2nn1_2nn1_lig/vina/vina2.pdbqt
 18 18 0 0 0
SMALL
GASTEIGER

@<TRIPOS>ATOM
      1  C1        -5.4230  -11.5880  -20.8140 C.ar  262  INH262      0.0740
      2  C2        -6.7320  -11.8010  -21.3670 C.ar  262  INH262      0.0250
      3  C3        -6.8870  -11.8870  -22.7600 C.ar  262  INH262      0.0090
      4  C4        -5.7630  -11.7630  -23.6100 C.ar  262  INH262     -0.0580
      5  C5        -4.4900  -11.5670  -23.0100 C.ar  262  INH262      0.0090
      6  C6        -4.2980  -11.4790  -21.6450 C.ar  262  INH262      0.0250
      7  S1        -5.1710  -11.4710  -19.0940 S.O2  262  INH262      0.2390
      8  O2        -5.4250  -12.7980  -18.5530 O.2   262  INH262     -0.2060
      9  O1        -3.8360  -10.9530  -18.9430 O.2   262  INH262     -0.2060
     10  N1        -6.2780  -10.4490  -18.5740 N.3   262  INH262     -0.2250
     11  H5        -6.4560  -10.3610  -17.5930 H     262  INH262      0.1360
     12  H         -7.1580  -10.7210  -19.0090 H     262  INH262      0.1360
     13  C7        -5.8730  -11.8420  -25.0820 C.3   262  INH262      0.0490
     14  C8        -6.4800  -10.5030  -25.5230 C.3   262  INH262      0.1140
     15  C9        -7.9560  -10.2880  -25.7150 C.2   262  INH262      0.1390
     16  O4        -8.6350  -11.1280  -26.3590 O.2   262  INH262     -0.6500
     17  O3        -8.5150   -9.2940  -25.2050 O.3   262  INH262     -0.7760
     18  H         -8.0170   -8.5250  -25.0120 H     262  INH262      0.1670
@<TRIPOS>BOND
     1    16    15    2
     2    15    14    1
     3    15    17    1
     4    14    13    1
     5    17    18    1
     6    13     4    1
     7     4     5   ar
     8     4     3   ar
     9     5     6   ar
    10     3     2   ar
    11     6     1   ar
    12     2     1   ar
    13     1     7    1
    14     7     9    2
    15     7    10    1
    16     7     8    2
    17    12    10    1
    18    10    11    1
