@<TRIPOS>MOLECULE
/tmp/ewbell/vina_2nn1_2nn1_lig/vina/vina5.pdbqt
 18 18 0 0 0
SMALL
GASTEIGER

@<TRIPOS>ATOM
      1  C1       -20.0190    1.4690  -17.0980 C.ar  262  INH262      0.0740
      2  C2       -20.3950    2.0740  -18.3470 C.ar  262  INH262      0.0250
      3  C3       -19.5530    1.9350  -19.4620 C.ar  262  INH262      0.0090
      4  C4       -18.3450    1.2050  -19.3540 C.ar  262  INH262     -0.0580
      5  C5       -18.0290    0.6170  -18.1000 C.ar  262  INH262      0.0090
      6  C6       -18.8320    0.7310  -16.9820 C.ar  262  INH262      0.0250
      7  S1       -21.0240    1.6110  -15.6810 S.O2  262  INH262      0.2390
      8  O2       -20.3490    0.8710  -14.6260 O.2   262  INH262     -0.2060
      9  O1       -21.1890    3.0270  -15.4770 O.2   262  INH262     -0.2060
     10  N1       -22.3950    0.8930  -16.0620 N.3   262  INH262     -0.2250
     11  H5       -22.3880    0.0810  -16.6470 H     262  INH262      0.1360
     12  H        -22.9720    1.5890  -16.5320 H     262  INH262      0.1360
     13  C7       -17.4220    1.0330  -20.4970 C.3   262  INH262      0.0490
     14  C8       -17.5640   -0.4340  -20.9240 C.3   262  INH262      0.1140
     15  C9       -16.5170   -1.4790  -20.6530 C.2   262  INH262      0.1390
     16  O4       -16.6020   -2.2040  -19.6300 O.2   262  INH262     -0.6500
     17  O3       -15.5810   -1.6510  -21.4620 O.3   262  INH262     -0.7760
     18  H        -14.6980   -1.4820  -21.1990 H     262  INH262      0.1670
@<TRIPOS>BOND
     1    17    18    1
     2    17    15    1
     3    14    15    1
     4    14    13    1
     5    15    16    2
     6    13     4    1
     7     3     4   ar
     8     3     2   ar
     9     4     5   ar
    10     2     1   ar
    11     5     6   ar
    12     1     6   ar
    13     1     7    1
    14    11    10    1
    15    12    10    1
    16    10     7    1
    17     7     9    2
    18     7     8    2
