@<TRIPOS>MOLECULE
/tmp/ewbell/vina_2nn1_2nn1_lig/vina/vina3.pdbqt
 18 18 0 0 0
SMALL
GASTEIGER

@<TRIPOS>ATOM
      1  C1       -17.5350    0.0400  -19.4670 C.ar  262  INH262      0.0740
      2  C2       -17.6780   -0.4130  -18.1100 C.ar  262  INH262      0.0250
      3  C3       -18.5110    0.2970  -17.2300 C.ar  262  INH262      0.0090
      4  C4       -19.2010    1.4480  -17.6780 C.ar  262  INH262     -0.0580
      5  C5       -19.0340    1.8440  -19.0320 C.ar  262  INH262      0.0090
      6  C6       -18.2260    1.1700  -19.9270 C.ar  262  INH262      0.0250
      7  S1       -16.5140   -0.8010  -20.6020 S.O2  262  INH262      0.2390
      8  O2       -17.3620   -1.7790  -21.2670 O.2   262  INH262     -0.2060
      9  O1       -15.9400    0.2300  -21.4270 O.2   262  INH262     -0.2060
     10  N1       -15.4170   -1.5430  -19.7140 N.3   262  INH262     -0.2250
     11  H5       -15.2080   -1.2080  -18.7950 H     262  INH262      0.1360
     12  H        -14.5450   -1.5160  -20.2410 H     262  INH262      0.1360
     13  C7       -20.0860    2.2340  -16.7900 C.3   262  INH262      0.0490
     14  C8       -19.4900    2.0920  -15.3830 C.3   262  INH262      0.1140
     15  C9       -18.6330    3.1460  -14.7380 C.2   262  INH262      0.1390
     16  O4       -17.4310    2.9000  -14.4660 O.2   262  INH262     -0.6500
     17  O3       -19.1050    4.2780  -14.5040 O.3   262  INH262     -0.7760
     18  H        -18.5350    4.9850  -14.2730 H     262  INH262      0.1670
@<TRIPOS>BOND
     1     9     7    2
     2     8     7    2
     3     7    10    1
     4     7     1    1
     5    12    10    1
     6     6     1   ar
     7     6     5   ar
     8    10    11    1
     9     1     2   ar
    10     5     4   ar
    11     2     3   ar
    12     4     3   ar
    13     4    13    1
    14    13    14    1
    15    14    15    1
    16    15    17    1
    17    15    16    2
    18    17    18    1
