@<TRIPOS>MOLECULE
./ligand/3ccz_lig.pdb
 71 73 0 0 0
SMALL
GASTEIGER

@<TRIPOS>ATOM
      1  N1        78.6220    8.0870   -4.9370 N.ar  1642  INH1642    -0.3265
      2  N2        77.3970    9.6590   -5.8520 N.ar  1642  INH1642    -0.2226
      3  C1        77.3870    8.4060   -5.3650 C.ar  1642  INH1642     0.1418
      4  C2        80.8880    9.1900   -4.8070 C.3   1642  INH1642    -0.0039
      5  C3        79.0030    6.8040   -4.3330 C.3   1642  INH1642     0.0273
      6  C4        79.1560    6.9990   -2.8250 C.3   1642  INH1642    -0.0087
      7  C5        78.8740    5.8790   -0.5990 C.3   1642  INH1642    -0.0002
      8  C6        81.7030    9.5860   -6.0380 C.3   1642  INH1642    -0.0572
      9  C7        74.7500    5.9010   -6.3730 C.ar  1642  INH1642    -0.0258
     10  C8        80.6900   14.8700   -8.1560 C.ar  1642  INH1642    -0.0567
     11  C9        81.9490   15.1660   -8.6720 C.ar  1642  INH1642    -0.0614
     12  C10       75.2530    7.6810   -4.2900 C.ar  1642  INH1642    -0.0484
     13  C11       74.1010    6.9010   -4.2750 C.ar  1642  INH1642    -0.0258
     14  C12       80.8120   12.6540   -9.0940 C.ar  1642  INH1642    -0.0567
     15  O1        79.8660   12.1250   -5.4580 O.2   1642  INH1642    -0.2684
     16  C13       79.0750   11.5070   -6.1490 C.2   1642  INH1642     0.2647
     17  N3        78.5200   12.0150   -7.2560 N.am  1642  INH1642    -0.3010
     18  C14       78.7630   13.3580   -7.7950 C.3   1642  INH1642     0.0717
     19  C15       77.7150   13.5630   -8.8920 C.3   1642  INH1642     0.0667
     20  O2        77.8360   12.5820   -9.9110 O.3   1642  INH1642    -0.3928
     21  C16       80.1170   13.6140   -8.3580 C.ar  1642  INH1642    -0.0250
     22  C17       82.0730   12.9530   -9.6100 C.ar  1642  INH1642    -0.0614
     23  C18       82.6440   14.2050   -9.4000 C.ar  1642  INH1642    -0.0617
     24  C19       78.6450   10.1350   -5.7380 C.ar  1642  INH1642     0.1472
     25  C20       79.4360    9.1460   -5.1430 C.ar  1642  INH1642     0.0535
     26  C21       81.1530   10.0960   -3.6030 C.3   1642  INH1642    -0.0572
     27  C22       76.1580    7.5660   -5.3420 C.ar  1642  INH1642     0.0176
     28  C23       73.8490    6.0130   -5.3170 C.ar  1642  INH1642     0.1234
     29  F1        72.7350    5.2630   -5.3020 F     1642  INH1642    -0.2055
     30  C24       75.9040    6.6810   -6.3870 C.ar  1642  INH1642    -0.0484
     31  C25       79.2570    5.6790   -2.0640 C.3   1642  INH1642     0.0592
     32  O3        80.5920    5.2040   -2.1110 O.3   1642  INH1642    -0.3916
     33  C26       77.3640    5.8840   -0.3830 C.3   1642  INH1642     0.0678
     34  O4        76.8160    4.6380   -0.7770 O.3   1642  INH1642    -0.3912
     35  C27       77.0620    6.1300    1.0910 C.3   1642  INH1642     0.0752
     36  C28       75.6210    6.5430    1.2720 C.2   1642  INH1642     0.3585
     37  O5        74.8280    5.7230    1.7800 O.co2 1642  INH1642    -0.2463
     38  O6        75.2760    7.6900    0.9080 O.co2 1642  INH1642    -0.2463
     39  H1        81.1960    8.1730   -4.5220 H     1642  INH1642     0.0359
     40  H2        78.2230    6.0550   -4.5320 H     1642  INH1642     0.0493
     41  H3        79.9570    6.4620   -4.7610 H     1642  INH1642     0.0493
     42  H4        80.0690    7.5830   -2.6370 H     1642  INH1642     0.0307
     43  H5        78.2820    7.5530   -2.4520 H     1642  INH1642     0.0307
     44  H6        79.3120    5.0630   -0.0060 H     1642  INH1642     0.0315
     45  H7        79.2820    6.8410   -0.2560 H     1642  INH1642     0.0315
     46  H8        82.7710    9.6150   -5.7770 H     1642  INH1642     0.0236
     47  H9        81.3840   10.5800   -6.3850 H     1642  INH1642     0.0236
     48  H10       81.5410    8.8490   -6.8380 H     1642  INH1642     0.0236
     49  H11       74.5530    5.2080   -7.1830 H     1642  INH1642     0.0646
     50  H12       80.1500   15.6220   -7.5920 H     1642  INH1642     0.0621
     51  H13       82.3870   16.1440   -8.5070 H     1642  INH1642     0.0618
     52  H14       75.4460    8.3780   -3.4830 H     1642  INH1642     0.0625
     53  H15       73.4000    6.9850   -3.4520 H     1642  INH1642     0.0646
     54  H16       80.3730   11.6780   -9.2640 H     1642  INH1642     0.0621
     55  H17       77.8850   11.4290   -7.7590 H     1642  INH1642     0.1497
     56  H18       78.5990   14.0860   -6.9870 H     1642  INH1642     0.0571
     57  H19       77.8520   14.5600   -9.3360 H     1642  INH1642     0.0579
     58  H20       76.7120   13.4950   -8.4460 H     1642  INH1642     0.0579
     59  H21       77.1750   12.7330  -10.5760 H     1642  INH1642     0.2095
     60  H22       82.6120   12.2040  -10.1790 H     1642  INH1642     0.0618
     61  H23       83.6250   14.4300   -9.8020 H     1642  INH1642     0.0618
     62  H24       80.5410    9.7630   -2.7520 H     1642  INH1642     0.0236
     63  H25       80.8910   11.1330   -3.8600 H     1642  INH1642     0.0236
     64  H26       82.2180   10.0430   -3.3320 H     1642  INH1642     0.0236
     65  H27       76.6040    6.5990   -7.2110 H     1642  INH1642     0.0625
     66  H28       78.5830    4.9410   -2.5240 H     1642  INH1642     0.0594
     67  H29       80.8500    5.0730   -3.0160 H     1642  INH1642     0.2098
     68  H30       76.9130    6.6860   -0.9860 H     1642  INH1642     0.0599
     69  H31       77.2040    3.9430   -0.2580 H     1642  INH1642     0.2098
     70  H32       77.2480    5.2060    1.6580 H     1642  INH1642     0.0404
     71  H33       77.7180    6.9290    1.4670 H     1642  INH1642     0.0404
@<TRIPOS>BOND
     1    59    20    1
     2    60    22    1
     3    20    19    1
     4    61    23    1
     5    22    23   ar
     6    22    14   ar
     7    23    11   ar
     8    57    19    1
     9    54    14    1
    10    14    21   ar
    11    19    58    1
    12    19    18    1
    13    11    51    1
    14    11    10   ar
    15    21    10   ar
    16    21    18    1
    17    10    50    1
    18    18    17    1
    19    18    56    1
    20    55    17    1
    21    17    16   am
    22    65    30    1
    23    49     9    1
    24    48     8    1
    25    30     9   ar
    26    30    27   ar
    27    47     8    1
    28     9    28   ar
    29    16    24    1
    30    16    15    2
    31     8    46    1
    32     8     4    1
    33     2    24   ar
    34     2     3   ar
    35    24    25   ar
    36     3    27    1
    37     3     1   ar
    38    27    12   ar
    39    28    29    1
    40    28    13   ar
    41    25     1   ar
    42    25     4    1
    43     1     5    1
    44     4    39    1
    45     4    26    1
    46    41     5    1
    47    40     5    1
    48     5     6    1
    49    12    13   ar
    50    12    52    1
    51    13    53    1
    52    63    26    1
    53    26    64    1
    54    26    62    1
    55    67    32    1
    56     6    42    1
    57     6    43    1
    58     6    31    1
    59    66    31    1
    60    32    31    1
    61    31     7    1
    62    68    33    1
    63    34    33    1
    64    34    69    1
    65     7    33    1
    66     7    45    1
    67     7    44    1
    68    33    35    1
    69    38    36   ar
    70    35    36    1
    71    35    71    1
    72    35    70    1
    73    36    37   ar
