@<TRIPOS>MOLECULE
/tmp/ewbell/vina_3ccz_3ccz_lig/vina/vina1.pdbqt
 44 46 0 0 0
SMALL
GASTEIGER

@<TRIPOS>ATOM
      1  N1        77.8040    5.9470   -6.2340 N.pl3 1642  INH1642    -0.3330
      2  N2        77.1010    7.9280   -6.8590 N.pl3 1642  INH1642    -0.3360
      3  H2        76.5170    8.7570   -6.9690 H     1642  INH1642     0.1680
      4  C1        76.7900    6.8280   -6.1530 C.3   1642  INH1642     0.1180
      5  C19       78.3160    7.7430   -7.3960 C.2   1642  INH1642     0.1250
      6  C20       78.7830    6.4870   -6.9940 C.2   1642  INH1642     0.0490
      7  C3        77.8350    4.6310   -5.5840 C.3   1642  INH1642     0.1330
      8  C4        78.7630    4.7040   -4.3720 C.3   1642  INH1642     0.0520
      9  C25       78.0440    4.4090   -3.0580 C.3   1642  INH1642     0.1220
     10  C5        78.0510    5.6440   -2.1590 C.3   1642  INH1642     0.0640
     11  C26       76.8480    5.6930   -1.2210 C.3   1642  INH1642     0.1300
     12  O4        76.5450    4.3890   -0.7560 O.3   1642  INH1642    -0.3950
     13  H31       76.6130    4.3660    0.1920 H     1642  INH1642     0.2100
     14  C27       77.1670    6.5950   -0.0340 C.3   1642  INH1642     0.1410
     15  C28       76.5400    6.0500    1.2270 C.2   1642  INH1642     0.1410
     16  O6        75.3290    6.2830    1.4430 O.2   1642  INH1642    -0.6500
     17  O5        77.2560    5.3880    2.0070 O.3   1642  INH1642    -0.7760
     18  H         76.8630    4.7810    2.6020 H     1642  INH1642     0.1670
     19  O3        78.7140    3.3610   -2.3740 O.3   1642  INH1642    -0.3950
     20  H29       78.2850    3.2010   -1.5420 H     1642  INH1642     0.2100
     21  C22       75.5000    6.6830   -5.4240 C.ar  1642  INH1642     0.0080
     22  C10       75.3690    7.1800   -4.1300 C.ar  1642  INH1642     0.0180
     23  C11       74.1600    7.0510   -3.4540 C.ar  1642  INH1642     0.0430
     24  C23       73.0780    6.4340   -4.0760 C.ar  1642  INH1642     0.1160
     25  C7        73.2050    5.9420   -5.3720 C.ar  1642  INH1642     0.0430
     26  F1        71.9110    6.3140   -3.4220 F     1642  INH1642    -0.2060
     27  C24       74.4170    6.0700   -6.0480 C.ar  1642  INH1642     0.0180
     28  C2        80.0740    5.8210   -7.3280 C.3   1642  INH1642     0.0300
     29  C6        80.0940    5.4170   -8.8020 C.3   1642  INH1642     0.0160
     30  C21       81.2670    6.6950   -6.9350 C.3   1642  INH1642     0.0160
     31  C13       79.0360    8.7440   -8.2410 C.2   1642  INH1642     0.2700
     32  O1        79.2550    8.4990   -9.4150 O.2   1642  INH1642    -0.2660
     33  N3        79.4540    9.8640   -7.6400 N.am  1642  INH1642    -0.3450
     34  H17       79.9590   10.5220   -8.1980 H     1642  INH1642     0.1630
     35  C14       79.2360   10.2090   -6.2290 C.3   1642  INH1642     0.1410
     36  C15       79.3510   11.7340   -6.1510 C.3   1642  INH1642     0.1940
     37  O2        79.2310   12.1930   -4.8130 O.3   1642  INH1642    -0.3990
     38  H21       79.2820   13.1410   -4.7980 H     1642  INH1642     0.2090
     39  C16       80.1660    9.5960   -5.2430 C.ar  1642  INH1642    -0.0330
     40  C8        79.6280    8.7830   -4.2440 C.ar  1642  INH1642     0.0090
     41  C9        80.4520    8.1940   -3.2890 C.ar  1642  INH1642     0.0010
     42  C18       81.8260    8.4200   -3.3230 C.ar  1642  INH1642     0.0000
     43  C17       82.3650    9.2360   -4.3120 C.ar  1642  INH1642     0.0010
     44  C12       81.5410    9.8260   -5.2710 C.ar  1642  INH1642     0.0090
@<TRIPOS>BOND
     1    32    31    2
     2    29    28    1
     3    31    33   am
     4    31     5    1
     5    34    33    1
     6    33    35    1
     7     5     6    2
     8     5     2    1
     9    28     6    1
    10    28    30    1
    11     6     1    1
    12     3     2    1
    13     2     4    1
    14     1     4    1
    15     1     7    1
    16    35    36    1
    17    35    39    1
    18     4    21    1
    19    36    37    1
    20    27    21   ar
    21    27    25   ar
    22     7     8    1
    23    21    22   ar
    24    25    24   ar
    25    44    39   ar
    26    44    43   ar
    27    39    40   ar
    28    37    38    1
    29     8     9    1
    30    43    42   ar
    31    40    41   ar
    32    22    23   ar
    33    24    23   ar
    34    24    26    1
    35    42    41   ar
    36     9    19    1
    37     9    10    1
    38    19    20    1
    39    10    11    1
    40    11    12    1
    41    11    14    1
    42    12    13    1
    43    14    15    1
    44    15    16    2
    45    15    17    1
    46    17    18    1
