@<TRIPOS>MOLECULE
/tmp/ewbell/vina_3ccz_3ccz_lig/vina/vina4.pdbqt
 44 46 0 0 0
SMALL
GASTEIGER

@<TRIPOS>ATOM
      1  N1        77.8500    8.4590   -5.7240 N.pl3 1642  INH1642    -0.3330
      2  N2        77.1500   10.5070   -6.0820 N.pl3 1642  INH1642    -0.3360
      3  H2        76.5470   11.2960   -6.3140 H     1642  INH1642     0.1680
      4  C1        76.7950    9.2100   -6.0900 C.3   1642  INH1642     0.1180
      5  C19       78.4380   10.5790   -5.7150 C.2   1642  INH1642     0.1250
      6  C20       78.8940    9.2790   -5.4700 C.2   1642  INH1642     0.0490
      7  C3        77.8470    6.9960   -5.6080 C.3   1642  INH1642     0.1330
      8  C4        77.1440    6.6090   -4.3080 C.3   1642  INH1642     0.0520
      9  C25       78.0020    5.7180   -3.4120 C.3   1642  INH1642     0.1220
     10  C5        78.0110    6.2540   -1.9810 C.3   1642  INH1642     0.0640
     11  C26       76.7480    5.8830   -1.2090 C.3   1642  INH1642     0.1300
     12  O4        76.7140    4.4840   -0.9830 O.3   1642  INH1642    -0.3950
     13  H31       77.5710    4.1120   -1.1660 H     1642  INH1642     0.2100
     14  C27       76.7380    6.6150    0.1280 C.3   1642  INH1642     0.1410
     15  C28       76.4700    5.6490    1.2570 C.2   1642  INH1642     0.1410
     16  O6        75.2880    5.3040    1.4820 O.2   1642  INH1642    -0.6500
     17  O5        77.4400    5.2330    1.9240 O.3   1642  INH1642    -0.7760
     18  H         78.3040    5.2600    1.5630 H     1642  INH1642     0.1670
     19  O3        79.3380    5.7100   -3.8890 O.3   1642  INH1642    -0.3950
     20  H29       79.6340    4.8130   -3.9860 H     1642  INH1642     0.2100
     21  C22       75.4270    8.7570   -6.4630 C.ar  1642  INH1642     0.0080
     22  C10       74.3840    8.8580   -5.5450 C.ar  1642  INH1642     0.0180
     23  C11       73.1040    8.4420   -5.8990 C.ar  1642  INH1642     0.0430
     24  C23       72.8650    7.9350   -7.1730 C.ar  1642  INH1642     0.1160
     25  C7        73.9050    7.8390   -8.0940 C.ar  1642  INH1642     0.0430
     26  F1        71.6280    7.5360   -7.5120 F     1642  INH1642    -0.2060
     27  C24       75.1870    8.2540   -7.7390 C.ar  1642  INH1642     0.0180
     28  C2        80.2510    8.8320   -5.0410 C.3   1642  INH1642     0.0300
     29  C6        81.3220    9.4910   -5.9100 C.3   1642  INH1642     0.0160
     30  C21       80.4670    9.0720   -3.5450 C.3   1642  INH1642     0.0160
     31  C13       79.2110   11.8500   -5.5630 C.2   1642  INH1642     0.2700
     32  O1        79.5740   12.2080   -4.4560 O.2   1642  INH1642    -0.2660
     33  N3        79.4290   12.5680   -6.6700 N.am  1642  INH1642    -0.3450
     34  H17       79.9240   13.4300   -6.5660 H     1642  INH1642     0.1630
     35  C14       79.0060   12.1980   -8.0270 C.3   1642  INH1642     0.1410
     36  C15       80.2520   12.3370   -8.9050 C.3   1642  INH1642     0.1940
     37  O2        81.2560   13.1070   -8.2590 O.3   1642  INH1642    -0.3990
     38  H21       80.8740   13.9110   -7.9290 H     1642  INH1642     0.2090
     39  C16       77.8980   12.9970   -8.6180 C.ar  1642  INH1642    -0.0330
     40  C8        78.0330   14.3850   -8.6590 C.ar  1642  INH1642     0.0090
     41  C9        77.0220   15.1810   -9.1910 C.ar  1642  INH1642     0.0010
     42  C18       75.8610   14.5900   -9.6830 C.ar  1642  INH1642     0.0000
     43  C17       75.7190   13.2070   -9.6380 C.ar  1642  INH1642     0.0010
     44  C12       76.7320   12.4080   -9.1060 C.ar  1642  INH1642     0.0090
@<TRIPOS>BOND
     1    42    43   ar
     2    42    41   ar
     3    43    44   ar
     4    41    40   ar
     5    44    39   ar
     6    36    37    1
     7    36    35    1
     8    40    39   ar
     9    39    35    1
    10    37    38    1
    11    25    27   ar
    12    25    24   ar
    13    35    33    1
    14    27    21   ar
    15    26    24    1
    16    24    23   ar
    17    33    34    1
    18    33    31   am
    19    21     4    1
    20    21    22   ar
    21     3     2    1
    22     4     2    1
    23     4     1    1
    24     2     5    1
    25    29    28    1
    26    23    22   ar
    27     1     7    1
    28     1     6    1
    29     5    31    1
    30     5     6    2
    31     7     8    1
    32    31    32    2
    33     6    28    1
    34    28    30    1
    35     8     9    1
    36    20    19    1
    37    19     9    1
    38     9    10    1
    39    10    11    1
    40    11    12    1
    41    11    14    1
    42    13    12    1
    43    14    15    1
    44    15    16    2
    45    15    17    1
    46    18    17    1
