@<TRIPOS>MOLECULE
/tmp/ewbell/vina_3ccz_3ccz_lig/vina/vina2.pdbqt
 44 46 0 0 0
SMALL
GASTEIGER

@<TRIPOS>ATOM
      1  N1        77.5080    6.4040   -5.1590 N.pl3 1642  INH1642    -0.3330
      2  N2        76.3600    4.8610   -6.2130 N.pl3 1642  INH1642    -0.3360
      3  H2        76.1280    4.0190   -6.7400 H     1642  INH1642     0.1680
      4  C1        77.5930    5.2490   -5.8430 C.3   1642  INH1642     0.1180
      5  C19       75.4890    5.7770   -5.7650 C.2   1642  INH1642     0.1250
      6  C20       76.2070    6.7620   -5.0790 C.2   1642  INH1642     0.0490
      7  C3        78.6460    7.1330   -4.5850 C.3   1642  INH1642     0.1330
      8  C4        78.4370    7.2590   -3.0760 C.3   1642  INH1642     0.0520
      9  C25       79.5260    6.5570   -2.2670 C.3   1642  INH1642     0.1220
     10  C5        78.9020    5.6000   -1.2540 C.3   1642  INH1642     0.0640
     11  C26       77.3780    5.6760   -1.2370 C.3   1642  INH1642     0.1300
     12  O4        76.8310    4.3730   -1.1310 O.3   1642  INH1642    -0.3950
     13  H31       76.6920    4.0150   -2.0010 H     1642  INH1642     0.2100
     14  C27       76.9260    6.5170   -0.0490 C.3   1642  INH1642     0.1410
     15  C28       76.5130    5.6290    1.1000 C.2   1642  INH1642     0.1410
     16  O6        75.3040    5.3210    1.2150 O.2   1642  INH1642    -0.6500
     17  O5        77.3930    5.2370    1.8930 O.3   1642  INH1642    -0.7760
     18  H         78.2850    5.1800    1.6120 H     1642  INH1642     0.1670
     19  O3        80.2850    7.5210   -1.5550 O.3   1642  INH1642    -0.3950
     20  H29       81.2010    7.2710   -1.5610 H     1642  INH1642     0.2100
     21  C22       78.8140    4.4660   -6.1820 C.ar  1642  INH1642     0.0080
     22  C10       79.7280    4.9650   -7.1060 C.ar  1642  INH1642     0.0180
     23  C11       80.8720    4.2360   -7.4150 C.ar  1642  INH1642     0.0430
     24  C23       81.1060    3.0120   -6.7930 C.ar  1642  INH1642     0.1160
     25  C7        80.1950    2.5150   -5.8650 C.ar  1642  INH1642     0.0430
     26  F1        82.2130    2.3120   -7.0910 F     1642  INH1642    -0.2060
     27  C24       79.0490    3.2450   -5.5570 C.ar  1642  INH1642     0.0180
     28  C2        75.6950    7.9880   -4.4020 C.3   1642  INH1642     0.0300
     29  C6        74.9410    8.8660   -5.4000 C.3   1642  INH1642     0.0160
     30  C21       74.8600    7.6350   -3.1700 C.3   1642  INH1642     0.0160
     31  C13       74.0070    5.7060   -5.9510 C.2   1642  INH1642     0.2700
     32  O1        73.3040    5.2930   -5.0450 O.2   1642  INH1642    -0.2660
     33  N3        73.5230    6.0650   -7.1460 N.am  1642  INH1642    -0.3450
     34  H17       72.5350    5.9930   -7.2790 H     1642  INH1642     0.1630
     35  C14       74.3190    6.5560   -8.2780 C.3   1642  INH1642     0.1410
     36  C15       73.5750    7.7840   -8.8090 C.3   1642  INH1642     0.1940
     37  O2        72.2220    7.7940   -8.3790 O.3   1642  INH1642    -0.3990
     38  H21       72.0720    8.5480   -7.8230 H     1642  INH1642     0.2090
     39  C16       74.5450    5.5990   -9.3960 C.ar  1642  INH1642    -0.0330
     40  C8        73.4870    4.7760   -9.7850 C.ar  1642  INH1642     0.0090
     41  C9        73.6480    3.8550  -10.8170 C.ar  1642  INH1642     0.0010
     42  C18       74.8750    3.7480  -11.4660 C.ar  1642  INH1642     0.0000
     43  C17       75.9340    4.5610  -11.0750 C.ar  1642  INH1642     0.0010
     44  C12       75.7750    5.4840  -10.0420 C.ar  1642  INH1642     0.0090
@<TRIPOS>BOND
     1    42    43   ar
     2    42    41   ar
     3    43    44   ar
     4    41    40   ar
     5    44    39   ar
     6    40    39   ar
     7    39    35    1
     8    36    37    1
     9    36    35    1
    10    37    38    1
    11    35    33    1
    12    23    22   ar
    13    23    24   ar
    14    34    33    1
    15    33    31   am
    16    22    21   ar
    17    26    24    1
    18    24    25   ar
    19     3     2    1
    20     2     4    1
    21     2     5    1
    22    21     4    1
    23    21    27   ar
    24    31     5    1
    25    31    32    2
    26    25    27   ar
    27     4     1    1
    28     5     6    2
    29    29    28    1
    30     1     6    1
    31     1     7    1
    32     6    28    1
    33     7     8    1
    34    28    30    1
    35     8     9    1
    36     9    19    1
    37     9    10    1
    38    13    12    1
    39    20    19    1
    40    10    11    1
    41    11    12    1
    42    11    14    1
    43    14    15    1
    44    15    16    2
    45    15    17    1
    46    18    17    1
