@<TRIPOS>MOLECULE
/tmp/ewbell/vina_3ccz_3ccz_lig/vina/vina5.pdbqt
 44 46 0 0 0
SMALL
GASTEIGER

@<TRIPOS>ATOM
      1  N1        78.6250    6.6990   -5.7850 N.pl3 1642  INH1642    -0.3330
      2  N2        77.6490    5.2950   -7.1580 N.pl3 1642  INH1642    -0.3360
      3  H2        77.3300    4.4260   -7.5870 H     1642  INH1642     0.1680
      4  C1        78.4110    5.3990   -6.0550 C.3   1642  INH1642     0.1180
      5  C19       77.3830    6.5340   -7.5930 C.2   1642  INH1642     0.1250
      6  C20       77.9890    7.4430   -6.7180 C.2   1642  INH1642     0.0490
      7  C3        79.4070    7.2110   -4.6530 C.3   1642  INH1642     0.1330
      8  C4        78.5100    7.2500   -3.4160 C.3   1642  INH1642     0.0520
      9  C25       79.2200    6.7660   -2.1540 C.3   1642  INH1642     0.1220
     10  C5        78.2300    6.6550   -0.9960 C.3   1642  INH1642     0.0640
     11  C26       76.8700    6.1210   -1.4360 C.3   1642  INH1642     0.1300
     12  O4        76.7620    4.7470   -1.1060 O.3   1642  INH1642    -0.3950
     13  H31       76.6690    4.2360   -1.9020 H     1642  INH1642     0.2100
     14  C27       75.7660    6.9030   -0.7330 C.3   1642  INH1642     0.1410
     15  C28       75.7010    6.5270    0.7280 C.2   1642  INH1642     0.1410
     16  O6        75.2710    5.3930    1.0360 O.2   1642  INH1642    -0.6500
     17  O5        76.0790    7.3650    1.5730 O.3   1642  INH1642    -0.7760
     18  H         76.5190    7.0820    2.3500 H     1642  INH1642     0.1670
     19  O3        80.2270    7.6960   -1.7880 O.3   1642  INH1642    -0.3950
     20  H29       80.0380    8.0430   -0.9240 H     1642  INH1642     0.2100
     21  C22       78.9040    4.2090   -5.3080 C.ar  1642  INH1642     0.0080
     22  C10       79.8310    3.3510   -5.8940 C.ar  1642  INH1642     0.0180
     23  C11       80.2970    2.2450   -5.1910 C.ar  1642  INH1642     0.0430
     24  C23       79.8430    2.0020   -3.8970 C.ar  1642  INH1642     0.1160
     25  C7        78.9210    2.8630   -3.3070 C.ar  1642  INH1642     0.0430
     26  F1        80.2960    0.9350   -3.2190 F     1642  INH1642    -0.2060
     27  C24       78.4540    3.9690   -4.0120 C.ar  1642  INH1642     0.0180
     28  C2        77.9880    8.9330   -6.7730 C.3   1642  INH1642     0.0300
     29  C6        77.0050    9.4970   -5.7460 C.3   1642  INH1642     0.0160
     30  C21       79.4020    9.4960   -6.6150 C.3   1642  INH1642     0.0160
     31  C13       76.5440    6.8570   -8.7880 C.2   1642  INH1642     0.2700
     32  O1        77.0390    6.8190   -9.9020 O.2   1642  INH1642    -0.2660
     33  N3        75.2770    7.2240   -8.5650 N.am  1642  INH1642    -0.3450
     34  H17       74.7230    7.4640   -9.3610 H     1642  INH1642     0.1630
     35  C14       74.6290    7.3030   -7.2490 C.3   1642  INH1642     0.1410
     36  C15       73.9170    5.9620   -7.0540 C.3   1642  INH1642     0.1940
     37  O2        74.6440    5.1140   -6.1770 O.3   1642  INH1642    -0.3990
     38  H21       74.0410    4.5420   -5.7180 H     1642  INH1642     0.2090
     39  C16       73.6520    8.4090   -7.0550 C.ar  1642  INH1642    -0.0330
     40  C8        73.8420    9.5910   -7.7710 C.ar  1642  INH1642     0.0090
     41  C9        72.9640   10.6620   -7.6180 C.ar  1642  INH1642     0.0010
     42  C18       71.8900   10.5570   -6.7390 C.ar  1642  INH1642     0.0000
     43  C17       71.7020    9.3830   -6.0170 C.ar  1642  INH1642     0.0010
     44  C12       72.5790    8.3090   -6.1700 C.ar  1642  INH1642     0.0090
@<TRIPOS>BOND
     1    32    31    2
     2    34    33    1
     3    31    33   am
     4    31     5    1
     5    33    35    1
     6    40    41   ar
     7    40    39   ar
     8    41    42   ar
     9     5     2    1
    10     5     6    2
    11     3     2    1
    12    35    39    1
    13    35    36    1
    14     2     4    1
    15    39    44   ar
    16    36    37    1
    17    28     6    1
    18    28    30    1
    19    28    29    1
    20    42    43   ar
    21     6     1    1
    22    37    38    1
    23    44    43   ar
    24     4     1    1
    25     4    21    1
    26    22    21   ar
    27    22    23   ar
    28     1     7    1
    29    21    27   ar
    30    23    24   ar
    31     7     8    1
    32    27    25   ar
    33    24    25   ar
    34    24    26    1
    35     8     9    1
    36     9    19    1
    37     9    10    1
    38    13    12    1
    39    19    20    1
    40    11    12    1
    41    11    10    1
    42    11    14    1
    43    14    15    1
    44    15    16    2
    45    15    17    1
    46    17    18    1
