@<TRIPOS>MOLECULE
/tmp/ewbell/vina_3ccz_3ccz_lig/vina/vina3.pdbqt
 44 46 0 0 0
SMALL
GASTEIGER

@<TRIPOS>ATOM
      1  N1        78.8750    6.4420   -6.0930 N.pl3 1642  INH1642    -0.3330
      2  N2        78.4160    5.5460   -8.0410 N.pl3 1642  INH1642    -0.3360
      3  H2        78.3790    4.8850   -8.8170 H     1642  INH1642     0.1680
      4  C1        79.0490    5.3580   -6.8700 C.3   1642  INH1642     0.1180
      5  C19       77.8430    6.7570   -8.0090 C.2   1642  INH1642     0.1250
      6  C20       78.1170    7.3360   -6.7650 C.2   1642  INH1642     0.0490
      7  C3        79.4110    6.6050   -4.7350 C.3   1642  INH1642     0.1330
      8  C4        78.3440    6.1690   -3.7320 C.3   1642  INH1642     0.0520
      9  C25       78.9370    5.6930   -2.4070 C.3   1642  INH1642     0.1220
     10  C5        78.2520    6.3950   -1.2360 C.3   1642  INH1642     0.0640
     11  C26       76.7970    5.9660   -1.0650 C.3   1642  INH1642     0.1300
     12  O4        76.7240    4.5600   -0.9060 O.3   1642  INH1642    -0.3950
     13  H31       77.6030    4.1980   -0.8820 H     1642  INH1642     0.2100
     14  C27       76.2080    6.6500    0.1630 C.3   1642  INH1642     0.1410
     15  C28       76.1490    5.6880    1.3250 C.2   1642  INH1642     0.1410
     16  O6        75.0490    5.1630    1.6140 O.2   1642  INH1642    -0.6500
     17  O5        77.2010    5.4530    1.9550 O.3   1642  INH1642    -0.7760
     18  H         77.7090    4.6930    1.7530 H     1642  INH1642     0.1670
     19  O3        80.3190    6.0080   -2.3640 O.3   1642  INH1642    -0.3950
     20  H29       80.7020    5.6440   -1.5750 H     1642  INH1642     0.2100
     21  C22       79.8070    4.1140   -6.5600 C.ar  1642  INH1642     0.0080
     22  C10       81.0310    3.8700   -7.1770 C.ar  1642  INH1642     0.0180
     23  C11       81.7410    2.7110   -6.8800 C.ar  1642  INH1642     0.0430
     24  C23       81.2310    1.8000   -5.9590 C.ar  1642  INH1642     0.1160
     25  C7        80.0090    2.0450   -5.3370 C.ar  1642  INH1642     0.0430
     26  F1        81.9200    0.6840   -5.6710 F     1642  INH1642    -0.2060
     27  C24       79.2980    3.2050   -5.6360 C.ar  1642  INH1642     0.0180
     28  C2        77.7040    8.6720   -6.2460 C.3   1642  INH1642     0.0300
     29  C6        78.5120    9.7750   -6.9290 C.3   1642  INH1642     0.0160
     30  C21       76.1930    8.8750   -6.3750 C.3   1642  INH1642     0.0160
     31  C13       77.0240    7.3430   -9.1150 C.2   1642  INH1642     0.2700
     32  O1        77.4790    8.2520   -9.7880 O.2   1642  INH1642    -0.2660
     33  N3        75.7880    6.8580   -9.2820 N.am  1642  INH1642    -0.3450
     34  H17       75.2310    7.2660  -10.0050 H     1642  INH1642     0.1630
     35  C14       75.1800    5.7770   -8.4970 C.3   1642  INH1642     0.1410
     36  C15       74.3920    4.9270   -9.4970 C.3   1642  INH1642     0.1940
     37  O2        75.2220    3.9550  -10.1160 O.3   1642  INH1642    -0.3990
     38  H21       75.4350    4.2360  -10.9970 H     1642  INH1642     0.2090
     39  C16       74.2790    6.1890   -7.3860 C.ar  1642  INH1642    -0.0330
     40  C8        73.2300    7.0620   -7.6760 C.ar  1642  INH1642     0.0090
     41  C9        72.3630    7.4880   -6.6730 C.ar  1642  INH1642     0.0010
     42  C18       72.5450    7.0450   -5.3650 C.ar  1642  INH1642     0.0000
     43  C17       73.5950    6.1800   -5.0710 C.ar  1642  INH1642     0.0010
     44  C12       74.4630    5.7520   -6.0750 C.ar  1642  INH1642     0.0090
@<TRIPOS>BOND
     1    38    37    1
     2    37    36    1
     3    34    33    1
     4    32    31    2
     5    36    35    1
     6    33    31   am
     7    33    35    1
     8    31     5    1
     9     3     2    1
    10    35    39    1
    11     2     5    1
    12     2     4    1
    13     5     6    2
    14    40    39   ar
    15    40    41   ar
    16    39    44   ar
    17    22    23   ar
    18    22    21   ar
    19    29    28    1
    20    23    24   ar
    21     4    21    1
    22     4     1    1
    23     6    28    1
    24     6     1    1
    25    41    42   ar
    26    21    27   ar
    27    30    28    1
    28     1     7    1
    29    44    43   ar
    30    24    26    1
    31    24    25   ar
    32    27    25   ar
    33    42    43   ar
    34     7     8    1
    35     8     9    1
    36     9    19    1
    37     9    10    1
    38    19    20    1
    39    10    11    1
    40    11    12    1
    41    11    14    1
    42    12    13    1
    43    14    15    1
    44    15    16    2
    45    15    17    1
    46    18    17    1
