@<TRIPOS>MOLECULE
./ligand/2rca_lig.pdb
 10 9 0 0 0
SMALL
GASTEIGER

@<TRIPOS>ATOM
      1  N1        50.8930  -11.5750    9.6220 N.4   285  INH285      0.2267
      2  C1        51.5360  -10.3800    9.0570 C.3   285  INH285      0.0680
      3  C2        52.6700  -10.8230    8.1560 C.2   285  INH285      0.3996
      4  O1        53.2430  -10.0050    7.3880 O.co2 285  INH285     -0.2403
      5  O2        53.0890  -12.0090    8.2330 O.co2 285  INH285     -0.2403
      6  H1        50.0810  -11.2760   10.2680 H     285  INH285      0.2000
      7  H2        51.6170  -12.1380   10.1920 H     285  INH285      0.2000
      8  H3        50.8020   -9.8050    8.4740 H     285  INH285      0.0933
      9  H4        51.9310   -9.7530    9.8690 H     285  INH285      0.0933
     10  H5        50.5340  -12.1490    8.8750 H     285  INH285      0.2000
@<TRIPOS>BOND
     1     1     2    1
     2     1    10    1
     3     1     7    1
     4     1     6    1
     5     2     9    1
     6     2     8    1
     7     2     3    1
     8     3     4   ar
     9     3     5   ar
