@<TRIPOS>MOLECULE
/tmp/ewbell/vina_2rca_2rca_lig/vina/vina3.pdbqt
 9 8 0 0 0
SMALL
GASTEIGER

@<TRIPOS>ATOM
      1  C1        56.4030   -6.2550   -0.6880 C.3   285  INH285      0.3390
      2  N1        57.7470   -5.7550   -1.0090 N.4   285  INH285     -0.0700
      3  H5        58.2700   -6.4760   -1.4810 H     285  INH285      0.2740
      4  H2        57.6660   -4.8910   -1.6520 H     285  INH285      0.2740
      5  H1        58.2560   -5.4790   -0.0980 H     285  INH285      0.2740
      6  C2        55.7420   -5.2820    0.2670 C.2   285  INH285      0.1650
      7  O1        55.3290   -5.6620    1.3950 O.2   285  INH285     -0.6490
      8  O2        55.6740   -4.0630   -0.0470 O.3   285  INH285     -0.7750
      9  H         55.1430   -3.4790    0.4570 H     285  INH285      0.1670
@<TRIPOS>BOND
     1     4     2    1
     2     3     2    1
     3     2     1    1
     4     2     5    1
     5     1     6    1
     6     8     6    1
     7     8     9    1
     8     6     7    2
