@<TRIPOS>MOLECULE
/tmp/ewbell/vina_2rca_2rca_lig/vina/vina2.pdbqt
 9 8 0 0 0
SMALL
GASTEIGER

@<TRIPOS>ATOM
      1  C1        51.9190  -11.3410   -1.4680 C.3   285  INH285      0.3390
      2  N1        51.6820  -10.4250   -2.5930 N.4   285  INH285     -0.0700
      3  H5        52.2220   -9.5840   -2.4610 H     285  INH285      0.2740
      4  H2        51.9790  -10.9030   -3.5150 H     285  INH285      0.2740
      5  H1        50.6320  -10.1750   -2.6400 H     285  INH285      0.2740
      6  C2        50.6810  -11.3630   -0.5960 C.2   285  INH285      0.1650
      7  O1        49.5450  -11.5930   -1.0900 O.2   285  INH285     -0.6490
      8  O2        50.8040  -11.2220    0.6500 O.3   285  INH285     -0.7750
      9  H         50.4750  -11.8790    1.2310 H     285  INH285      0.1670
@<TRIPOS>BOND
     1     4     2    1
     2     5     2    1
     3     2     3    1
     4     2     1    1
     5     1     6    1
     6     7     6    2
     7     6     8    1
     8     8     9    1
