@<TRIPOS>MOLECULE
/tmp/ewbell/vina_2rca_2rca_lig/vina/vina4.pdbqt
 9 8 0 0 0
SMALL
GASTEIGER

@<TRIPOS>ATOM
      1  C1        48.4140   -5.8410   18.1230 C.3   285  INH285      0.3390
      2  N1        47.1410   -6.2700   18.7190 N.4   285  INH285     -0.0700
      3  H5        46.9200   -5.6760   19.5040 H     285  INH285      0.2740
      4  H2        46.3560   -6.1980   17.9820 H     285  INH285      0.2740
      5  H1        47.2260   -7.2920   19.0550 H     285  INH285      0.2740
      6  C2        49.3800   -5.5030   19.2400 C.2   285  INH285      0.1650
      7  O1        50.5920   -5.8420   19.1720 O.2   285  INH285     -0.6490
      8  O2        48.9770   -4.8100   20.2110 O.3   285  INH285     -0.7750
      9  H         49.4770   -4.0720   20.5000 H     285  INH285      0.1670
@<TRIPOS>BOND
     1     4     2    1
     2     1     2    1
     3     1     6    1
     4     2     5    1
     5     2     3    1
     6     7     6    2
     7     6     8    1
     8     8     9    1
