@<TRIPOS>MOLECULE
/tmp/ewbell/vina_2rca_2rca_lig/vina/vina5.pdbqt
 9 8 0 0 0
SMALL
GASTEIGER

@<TRIPOS>ATOM
      1  C1        57.7050  -24.1560    0.6430 C.3   285  INH285      0.3390
      2  N1        59.1040  -23.7200    0.7640 N.4   285  INH285     -0.0700
      3  H5        59.4150  -23.8460    1.7150 H     285  INH285      0.2740
      4  H2        59.7230  -24.3070    0.1020 H     285  INH285      0.2740
      5  H1        59.1810  -22.6770    0.4960 H     285  INH285      0.2740
      6  C2        56.9810  -23.8130    1.9280 C.2   285  INH285      0.1650
      7  O1        56.4540  -22.6800    2.0910 O.2   285  INH285     -0.6490
      8  O2        56.8430  -24.7010    2.8110 O.3   285  INH285     -0.7750
      9  H         57.1460  -25.5730    2.6500 H     285  INH285      0.1670
@<TRIPOS>BOND
     1     4     2    1
     2     5     2    1
     3     1     2    1
     4     1     6    1
     5     2     3    1
     6     6     7    2
     7     6     8    1
     8     9     8    1
