@<TRIPOS>MOLECULE
/tmp/ewbell/vina_2rca_2rca_lig/vina/vina1.pdbqt
 9 8 0 0 0
SMALL
GASTEIGER

@<TRIPOS>ATOM
      1  C1        49.8020  -11.5700   -1.5910 C.3   285  INH285      0.3390
      2  N1        48.7390  -12.3840   -0.9840 N.4   285  INH285     -0.0700
      3  H5        49.1330  -12.9710   -0.2660 H     285  INH285      0.2740
      4  H2        47.9920  -11.7350   -0.5500 H     285  INH285      0.2740
      5  H1        48.2810  -13.0010   -1.7430 H     285  INH285      0.2740
      6  C2        50.9270  -11.4210   -0.5870 C.2   285  INH285      0.1650
      7  O1        52.1300  -11.4160   -0.9610 O.2   285  INH285     -0.6490
      8  O2        50.6470  -11.2270    0.6260 O.3   285  INH285     -0.7750
      9  H         50.7270  -11.9270    1.2430 H     285  INH285      0.1670
@<TRIPOS>BOND
     1     5     2    1
     2     1     2    1
     3     1     6    1
     4     2     4    1
     5     2     3    1
     6     7     6    2
     7     6     8    1
     8     8     9    1
