@<TRIPOS>MOLECULE
./ligand/2cji_lig.pdb
 55 58 0 0 0
SMALL
GASTEIGER

@<TRIPOS>ATOM
      1 Cl1        13.8980    7.2560   26.6060 Cl    292  INH292     -0.0835
      2  C1        12.2280    7.4970   26.1660 C.ar  292  INH292      0.0416
      3  C2        11.1920    7.0870   27.0520 C.ar  292  INH292     -0.0428
      4  C3         9.8150    7.2600   26.7010 C.ar  292  INH292     -0.0526
      5  C4         9.5110    7.8730   25.4700 C.ar  292  INH292     -0.0159
      6  C5         8.1600    8.0730   25.1010 C.ar  292  INH292     -0.0276
      7  C6        10.5710    8.3160   24.5510 C.ar  292  INH292     -0.0164
      8  C7        11.9260    8.1130   24.9280 C.ar  292  INH292     -0.0357
      9  C8        10.2500    8.9110   23.2990 C.ar  292  INH292     -0.0521
     10  C9         8.8830    9.0720   22.9520 C.ar  292  INH292     -0.0348
     11  C10        7.8540    8.6690   23.8560 C.ar  292  INH292      0.1059
     12  S1         6.1200    8.8440   23.4240 S.O2  292  INH292      0.0591
     13  O1         5.8710   10.1120   22.7990 O.2   292  INH292     -0.1530
     14  O2         5.3500    8.4400   24.5680 O.2   292  INH292     -0.1530
     15  N1         5.8990    7.8290   22.1850 N.3   292  INH292     -0.1780
     16  C11        6.0230    6.3610   22.2380 C.3   292  INH292      0.1064
     17  C12        4.7150    5.6680   21.8630 C.3   292  INH292     -0.0116
     18  C13        5.1110    4.3350   21.2130 C.3   292  INH292      0.0174
     19  C14        7.0530    5.6740   21.3390 C.2   292  INH292      0.2349
     20  O3         8.1930    6.0680   21.1110 O.2   292  INH292     -0.2738
     21  N2         6.5120    4.5220   20.8550 N.am  292  INH292     -0.2888
     22  C15        7.3160    3.5150   20.1230 C.3   292  INH292      0.0996
     23  C16        7.0920    2.0900   20.6760 C.3   292  INH292     -0.0379
     24  C17        7.1730    3.5580   18.6090 C.2   292  INH292      0.2360
     25  O4         6.1410    3.9890   18.1180 O.2   292  INH292     -0.2736
     26  N3         8.2350    3.1650   17.8510 N.am  292  INH292     -0.2956
     27  C18        9.6120    3.0050   18.3380 C.3   292  INH292      0.0382
     28  C19       10.1330    1.6310   17.9500 C.3   292  INH292      0.0635
     29  O5        10.1950    1.6410   16.5400 O.3   292  INH292     -0.3767
     30  C20        8.9200    1.7770   15.8930 C.3   292  INH292      0.0635
     31  C21        8.0480    2.9290   16.4170 C.3   292  INH292      0.0382
     32  H1        11.4490    6.6380   28.0050 H     292  INH292      0.0632
     33  H2         9.0260    6.9270   27.3660 H     292  INH292      0.0624
     34  H3         7.3630    7.7710   25.7700 H     292  INH292      0.0643
     35  H4        12.7260    8.4290   24.2690 H     292  INH292      0.0638
     36  H5        11.0340    9.2350   22.6240 H     292  INH292      0.0624
     37  H6         8.6180    9.5040   21.9940 H     292  INH292      0.0637
     38  H7         5.6560    8.2330   21.3030 H     292  INH292      0.1489
     39  H8         6.2740    6.1150   23.2800 H     292  INH292      0.0573
     40  H9         4.1460    6.2850   21.1520 H     292  INH292      0.0301
     41  H10        4.1070    5.4890   22.7620 H     292  INH292      0.0301
     42  H11        4.5010    4.1390   20.3190 H     292  INH292      0.0465
     43  H12        4.9960    3.5040   21.9240 H     292  INH292      0.0465
     44  H13        8.3670    3.7660   20.3300 H     292  INH292      0.0594
     45  H14        7.7050    1.3750   20.1070 H     292  INH292      0.0252
     46  H15        6.0300    1.8210   20.5780 H     292  INH292      0.0252
     47  H16        7.3820    2.0590   21.7370 H     292  INH292      0.0252
     48  H17        9.6270    3.1060   19.4330 H     292  INH292      0.0487
     49  H18       10.2520    3.7790   17.8890 H     292  INH292      0.0487
     50  H19        9.4470    0.8460   18.3000 H     292  INH292      0.0575
     51  H20       11.1320    1.4630   18.3780 H     292  INH292      0.0575
     52  H21        8.3650    0.8380   16.0320 H     292  INH292      0.0575
     53  H22        9.0970    1.9430   14.8200 H     292  INH292      0.0575
     54  H23        8.3110    3.8470   15.8710 H     292  INH292      0.0487
     55  H24        6.9910    2.6830   16.2350 H     292  INH292      0.0487
@<TRIPOS>BOND
     1     1     2    1
     2     2     8   ar
     3     2     3   ar
     4     3    32    1
     5     3     4   ar
     6     4    33    1
     7     4     5   ar
     8     5     7   ar
     9     5     6   ar
    10     6    34    1
    11     6    11   ar
    12     7     9   ar
    13     7     8   ar
    14     8    35    1
    15     9    10   ar
    16     9    36    1
    17    10    11   ar
    18    10    37    1
    19    11    12    1
    20    12    15    1
    21    12    14    2
    22    12    13    2
    23    15    38    1
    24    15    16    1
    25    16    39    1
    26    16    19    1
    27    16    17    1
    28    17    41    1
    29    17    40    1
    30    17    18    1
    31    18    43    1
    32    18    42    1
    33    18    21    1
    34    19    21   am
    35    19    20    2
    36    21    22    1
    37    22    44    1
    38    22    24    1
    39    22    23    1
    40    23    47    1
    41    23    46    1
    42    23    45    1
    43    24    26   am
    44    24    25    2
    45    26    31    1
    46    26    27    1
    47    27    49    1
    48    27    48    1
    49    27    28    1
    50    28    51    1
    51    28    50    1
    52    28    29    1
    53    29    30    1
    54    30    53    1
    55    30    52    1
    56    30    31    1
    57    31    55    1
    58    31    54    1
