@<TRIPOS>MOLECULE
/tmp/ewbell/vina_2cji_2cji_lig/vina/vina4.pdbqt
 32 35 0 0 0
SMALL
GASTEIGER

@<TRIPOS>ATOM
      1  C11        6.1620    6.6000   20.8420 C.3   292  INH292      0.1860
      2  C12        4.7390    6.0490   20.7790 C.3   292  INH292      0.0550
      3  C13        4.8740    4.5200   20.7760 C.3   292  INH292      0.1290
      4  C14        7.0120    5.4280   20.3480 C.2   292  INH292      0.2440
      5  O3         8.1860    5.4840   19.9930 O.2   292  INH292     -0.2710
      6  N2         6.2640    4.2920   20.3980 N.am  292  INH292     -0.3370
      7  N1         6.2760    7.9010   20.1580 N.3   292  INH292     -0.3010
      8  H7         6.0050    7.9340   19.1960 H     292  INH292      0.1730
      9  S1         6.7970    9.2790   20.8240 S.O2  292  INH292      0.2590
     10  O2         5.6960   10.1310   21.1810 O.2   292  INH292     -0.2010
     11  O1         7.7600    9.7160   19.8520 O.2   292  INH292     -0.2010
     12  C10        7.6030    8.7760   22.3470 C.ar  292  INH292      0.0800
     13  C5         9.0010    8.9690   22.4410 C.ar  292  INH292      0.0370
     14  C4         9.6770    8.6290   23.6360 C.ar  292  INH292     -0.0240
     15  C3        11.0650    8.8400   23.7370 C.ar  292  INH292      0.0140
     16  C6         8.9050    8.0580   24.7510 C.ar  292  INH292     -0.0240
     17  C2        11.7220    8.4710   24.9530 C.ar  292  INH292      0.0240
     18  C1        10.9860    7.9320   26.0450 C.ar  292  INH292      0.0340
     19 Cl1        11.8050    7.5100   27.5270 Cl    292  INH292     -0.0840
     20  C7         9.5900    7.7190   25.9480 C.ar  292  INH292      0.0360
     21  C8         7.4980    7.8740   24.6460 C.ar  292  INH292      0.0140
     22  C9         6.8500    8.2500   23.4410 C.ar  292  INH292      0.0260
     23  C15        6.8500    2.9470   20.1880 C.3   292  INH292      0.1750
     24  C16        6.3790    1.9420   21.2630 C.3   292  INH292      0.0420
     25  C17        6.6810    2.3870   18.7840 C.2   292  INH292      0.2420
     26  N3         7.8020    2.0500   18.0870 N.am  292  INH292     -0.3460
     27  C21        9.1120    2.1590   18.7330 C.3   292  INH292      0.1520
     28  C18        7.8210    1.5120   16.7190 C.3   292  INH292      0.1520
     29  C20       10.2160    2.5880   17.7540 C.3   292  INH292      0.1870
     30  O5        10.0530    2.1060   16.4100 O.3   292  INH292     -0.3880
     31  C19        8.7720    2.3320   15.8630 C.3   292  INH292      0.1870
     32  O4         5.5600    2.3050   18.3030 O.2   292  INH292     -0.2710
@<TRIPOS>BOND
     1    31    30    1
     2    31    28    1
     3    30    29    1
     4    28    26    1
     5    29    27    1
     6    26    27    1
     7    26    25   am
     8    32    25    2
     9    25    23    1
    10     8     7    1
    11    11     9    2
    12     5     4    2
    13     7     9    1
    14     7     1    1
    15    23     6    1
    16    23    24    1
    17     4     6   am
    18     4     1    1
    19     6     3    1
    20     3     2    1
    21     2     1    1
    22     9    10    2
    23     9    12    1
    24    12    13   ar
    25    12    22   ar
    26    13    14   ar
    27    22    21   ar
    28    14    15   ar
    29    14    16   ar
    30    15    17   ar
    31    21    16   ar
    32    16    20   ar
    33    17    18   ar
    34    20    18   ar
    35    18    19    1
