@<TRIPOS>MOLECULE
/tmp/ewbell/vina_2cji_2cji_lig/vina/vina5.pdbqt
 32 35 0 0 0
SMALL
GASTEIGER

@<TRIPOS>ATOM
      1  C11        3.2240    5.0790   22.6290 C.3   292  INH292      0.1860
      2  C12        2.4850    5.5900   23.8640 C.3   292  INH292      0.0550
      3  C13        2.7600    7.0990   23.9310 C.3   292  INH292      0.1290
      4  C14        4.2730    6.1640   22.3760 C.2   292  INH292      0.2440
      5  O3         5.2530    6.0660   21.6430 O.2   292  INH292     -0.2710
      6  N2         3.9240    7.2810   23.0720 N.am  292  INH292     -0.3370
      7  N1         3.6680    3.6840   22.7960 N.3   292  INH292     -0.3010
      8  H7         4.1740    3.4640   23.6300 H     292  INH292      0.1730
      9  S1         3.4110    2.4760   21.7520 S.O2  292  INH292      0.2590
     10  O2         2.4100    2.8310   20.7850 O.2   292  INH292     -0.2010
     11  O1         3.1900    1.3730   22.6450 O.2   292  INH292     -0.2010
     12  C10        4.9660    2.2910   20.8730 C.ar  292  INH292      0.0800
     13  C5         4.9250    2.3210   19.4600 C.ar  292  INH292      0.0370
     14  C4         6.1280    2.2220   18.7220 C.ar  292  INH292     -0.0240
     15  C3         6.0900    2.2740   17.3150 C.ar  292  INH292      0.0140
     16  C6         7.3970    2.0660   19.4490 C.ar  292  INH292     -0.0240
     17  C2         7.3220    2.1550   16.5970 C.ar  292  INH292      0.0240
     18  C1         8.5580    2.0180   17.2880 C.ar  292  INH292      0.0340
     19 Cl1        10.0500    1.8980   16.3920 Cl    292  INH292     -0.0840
     20  C7         8.6010    1.9680   18.7020 C.ar  292  INH292      0.0360
     21  C8         7.4250    2.0420   20.8720 C.ar  292  INH292      0.0140
     22  C9         6.2010    2.1690   21.5800 C.ar  292  INH292      0.0260
     23  C15        4.6120    8.5800   22.8820 C.3   292  INH292      0.1750
     24  C16        3.6720    9.7730   23.1660 C.3   292  INH292      0.0420
     25  C17        5.9350    8.7190   23.6190 C.2   292  INH292      0.2420
     26  N3         7.0100    9.1920   22.9290 N.am  292  INH292     -0.3460
     27  C21        6.8390    9.6240   21.5390 C.3   292  INH292      0.1520
     28  C18        8.3600    9.3740   23.4810 C.3   292  INH292      0.1520
     29  C20        8.0720    9.3150   20.6740 C.3   292  INH292      0.1870
     30  O5         9.3300    9.3970   21.3620 O.3   292  INH292     -0.3880
     31  C19        9.3740    8.6870   22.5810 C.3   292  INH292      0.1870
     32  O4         6.0110    8.3570   24.7840 O.2   292  INH292     -0.2710
@<TRIPOS>BOND
     1    19    18    1
     2    17    18   ar
     3    17    15   ar
     4    18    20   ar
     5    15    14   ar
     6    20    16   ar
     7    14    16   ar
     8    14    13   ar
     9    16    21   ar
    10    13    12   ar
    11    29    30    1
    12    29    27    1
    13    10     9    2
    14    21    22   ar
    15    12    22   ar
    16    12     9    1
    17    30    31    1
    18    27    26    1
    19     5     4    2
    20     9    11    2
    21     9     7    1
    22     4     1    1
    23     4     6   am
    24    31    28    1
    25     1     7    1
    26     1     2    1
    27     7     8    1
    28    23     6    1
    29    23    24    1
    30    23    25    1
    31    26    28    1
    32    26    25   am
    33     6     3    1
    34    25    32    2
    35     2     3    1
