@<TRIPOS>MOLECULE
/tmp/ewbell/vina_2cji_2cji_lig/vina/vina2.pdbqt
 32 35 0 0 0
SMALL
GASTEIGER

@<TRIPOS>ATOM
      1  C11        6.0620    7.0690   21.0110 C.3   292  INH292      0.1860
      2  C12        7.4580    7.2540   20.4190 C.3   292  INH292      0.0550
      3  C13        7.4120    6.6270   19.0190 C.3   292  INH292      0.1290
      4  C14        5.4780    5.9250   20.1800 C.2   292  INH292      0.2440
      5  O3         4.4780    5.2680   20.4530 O.2   292  INH292     -0.2710
      6  N2         6.2300    5.7740   19.0550 N.am  292  INH292     -0.3370
      7  N1         6.1040    6.9320   22.4780 N.3   292  INH292     -0.3010
      8  H7         6.0840    6.0040   22.8500 H     292  INH292      0.1730
      9  S1         6.1810    8.1480   23.5420 S.O2  292  INH292      0.2590
     10  O2         5.4650    7.8290   24.7460 O.2   292  INH292     -0.2010
     11  O1         5.7690    9.2590   22.7310 O.2   292  INH292     -0.2010
     12  C10        7.9210    8.2740   23.9690 C.ar  292  INH292      0.0800
     13  C5         8.3510    7.6310   25.1530 C.ar  292  INH292      0.0370
     14  C4         9.7190    7.6640   25.5100 C.ar  292  INH292     -0.0240
     15  C3        10.1510    7.0060   26.6780 C.ar  292  INH292      0.0140
     16  C6        10.6630    8.3910   24.6470 C.ar  292  INH292     -0.0240
     17  C2        11.5390    7.0720   27.0210 C.ar  292  INH292      0.0240
     18  C1        12.4650    7.7590   26.1880 C.ar  292  INH292      0.0340
     19 Cl1        14.1550    7.8060   26.6150 Cl    292  INH292     -0.0840
     20  C7        12.0340    8.4200   25.0120 C.ar  292  INH292      0.0360
     21  C8        10.2170    9.0300   23.4560 C.ar  292  INH292      0.0140
     22  C9         8.8420    8.9540   23.1150 C.ar  292  INH292      0.0260
     23  C15        5.8150    4.8950   17.9360 C.3   292  INH292      0.1750
     24  C16        4.7600    5.5740   17.0350 C.3   292  INH292      0.0420
     25  C17        6.9590    4.3130   17.1190 C.2   292  INH292      0.2420
     26  N3         7.5270    3.1500   17.5460 N.am  292  INH292     -0.3460
     27  C21        6.9710    2.4640   18.7150 C.3   292  INH292      0.1520
     28  C18        8.6470    2.4610   16.8890 C.3   292  INH292      0.1520
     29  C20        8.0540    1.7760   19.5610 C.3   292  INH292      0.1870
     30  O5         9.1660    1.2570   18.8150 O.3   292  INH292     -0.3880
     31  C19        9.7370    2.1750   17.9080 C.3   292  INH292      0.1870
     32  O4         7.3690    4.9240   16.1440 O.2   292  INH292     -0.2710
@<TRIPOS>BOND
     1    32    25    2
     2    28    26    1
     3    28    31    1
     4    24    23    1
     5    25    26   am
     6    25    23    1
     7    26    27    1
     8    31    30    1
     9    23     6    1
    10    27    29    1
    11    30    29    1
    12     3     6    1
    13     3     2    1
    14     6     4   am
    15     4     5    2
    16     4     1    1
    17     2     1    1
    18     1     7    1
    19     7     8    1
    20     7     9    1
    21    11     9    2
    22    22    21   ar
    23    22    12   ar
    24    21    16   ar
    25     9    12    1
    26     9    10    2
    27    12    13   ar
    28    16    20   ar
    29    16    14   ar
    30    20    18   ar
    31    13    14   ar
    32    14    15   ar
    33    18    19    1
    34    18    17   ar
    35    15    17   ar
