@<TRIPOS>MOLECULE
/tmp/ewbell/vina_2cji_2cji_lig/vina/vina1.pdbqt
 32 35 0 0 0
SMALL
GASTEIGER

@<TRIPOS>ATOM
      1  C11        5.8350    7.6180   20.4550 C.3   292  INH292      0.1860
      2  C12        5.0030    8.6770   21.1740 C.3   292  INH292      0.0550
      3  C13        5.9800    9.4500   22.0710 C.3   292  INH292      0.1290
      4  C14        7.0780    7.4900   21.3390 C.2   292  INH292      0.2440
      5  O3         7.9070    6.5860   21.2960 O.2   292  INH292     -0.2710
      6  N2         7.1390    8.5700   22.1670 N.am  292  INH292     -0.3370
      7  N1         5.0450    6.4090   20.1590 N.3   292  INH292     -0.3010
      8  H7         4.5330    6.0040   20.9170 H     292  INH292      0.1730
      9  S1         4.9310    5.6800   18.7210 S.O2  292  INH292      0.2590
     10  O2         5.3550    6.5540   17.6620 O.2   292  INH292     -0.2010
     11  O1         3.5800    5.1940   18.7560 O.2   292  INH292     -0.2010
     12  C10        6.1040    4.3240   18.8000 C.ar  292  INH292      0.0800
     13  C5         7.1230    4.2830   17.8200 C.ar  292  INH292      0.0370
     14  C4         8.0980    3.2590   17.8650 C.ar  292  INH292     -0.0240
     15  C3         9.1250    3.2310   16.9020 C.ar  292  INH292      0.0140
     16  C6         8.0120    2.2410   18.9230 C.ar  292  INH292     -0.0240
     17  C2        10.0870    2.1730   16.9640 C.ar  292  INH292      0.0240
     18  C1        10.0240    1.1910   17.9910 C.ar  292  INH292      0.0340
     19 Cl1        11.2210   -0.0770   18.0610 Cl    292  INH292     -0.0840
     20  C7         8.9940    1.2160   18.9620 C.ar  292  INH292      0.0360
     21  C8         6.9840    2.2960   19.9050 C.ar  292  INH292      0.0140
     22  C9         6.0380    3.3520   19.8450 C.ar  292  INH292      0.0260
     23  C15        8.3270    8.8610   23.0030 C.3   292  INH292      0.1750
     24  C16        8.7210   10.3540   22.9390 C.3   292  INH292      0.0420
     25  C17        8.2390    8.3650   24.4380 C.2   292  INH292      0.2420
     26  N3         9.3740    8.3680   25.1910 N.am  292  INH292     -0.3460
     27  C21       10.6090    8.9200   24.6280 C.3   292  INH292      0.1520
     28  C18        9.4700    7.9100   26.5840 C.3   292  INH292      0.1520
     29  C20       11.8600    8.1650   25.1050 C.3   292  INH292      0.1870
     30  O5        11.7820    7.6490   26.4430 O.3   292  INH292     -0.3880
     31  C19       10.6090    6.9120   26.7140 C.3   292  INH292      0.1870
     32  O4         7.1760    7.9300   24.8560 O.2   292  INH292     -0.2710
@<TRIPOS>BOND
     1    15    17   ar
     2    15    14   ar
     3    17    18   ar
     4    10     9    2
     5    13    14   ar
     6    13    12   ar
     7    14    16   ar
     8    18    19    1
     9    18    20   ar
    10     9    11    2
    11     9    12    1
    12     9     7    1
    13    12    22   ar
    14    16    20   ar
    15    16    21   ar
    16    22    21   ar
    17     7     1    1
    18     7     8    1
    19     1     2    1
    20     1     4    1
    21     2     3    1
    22     5     4    2
    23     4     6   am
    24     3     6    1
    25     6    23    1
    26    24    23    1
    27    23    25    1
    28    25    32    2
    29    25    26   am
    30    27    29    1
    31    27    26    1
    32    29    30    1
    33    26    28    1
    34    30    31    1
    35    28    31    1
