@<TRIPOS>MOLECULE
/tmp/ewbell/vina_2cji_2cji_lig/vina/vina3.pdbqt
 32 35 0 0 0
SMALL
GASTEIGER

@<TRIPOS>ATOM
      1  C11        5.8140    6.9150   21.8640 C.3   292  INH292      0.1860
      2  C12        7.2310    6.5300   21.4440 C.3   292  INH292      0.0550
      3  C13        7.0870    5.2910   20.5500 C.3   292  INH292      0.1290
      4  C14        5.0220    5.6250   21.6470 C.2   292  INH292      0.2440
      5  O3         3.8990    5.3820   22.0810 O.2   292  INH292     -0.2710
      6  N2         5.7520    4.7920   20.8550 N.am  292  INH292     -0.3370
      7  N1         5.7920    7.5480   23.1950 N.3   292  INH292     -0.3010
      8  H7         5.4470    6.9970   23.9550 H     292  INH292      0.1730
      9  S1         6.2750    9.0530   23.5380 S.O2  292  INH292      0.2590
     10  O2         5.5910    9.5670   24.6920 O.2   292  INH292     -0.2010
     11  O1         6.1210    9.6970   22.2640 O.2   292  INH292     -0.2010
     12  C10        8.0100    8.8890   23.9700 C.ar  292  INH292      0.0800
     13  C5         8.3230    8.2140   25.1730 C.ar  292  INH292      0.0370
     14  C4         9.6760    8.0200   25.5360 C.ar  292  INH292     -0.0240
     15  C3         9.9880    7.3290   26.7230 C.ar  292  INH292      0.0140
     16  C6        10.7310    8.5520   24.6590 C.ar  292  INH292     -0.0240
     17  C2        11.3660    7.1640   27.0710 C.ar  292  INH292      0.0240
     18  C1        12.3970    7.6600   26.2250 C.ar  292  INH292      0.0340
     19 Cl1        14.0700    7.4280   26.6590 Cl    292  INH292     -0.0840
     20  C7        12.0870    8.3550   25.0300 C.ar  292  INH292      0.0360
     21  C8        10.4030    9.2260   23.4500 C.ar  292  INH292      0.0140
     22  C9         9.0350    9.3790   23.1040 C.ar  292  INH292      0.0260
     23  C15        5.1870    3.5470   20.2800 C.3   292  INH292      0.1750
     24  C16        5.8240    3.2060   18.9150 C.3   292  INH292      0.0420
     25  C17        5.1920    2.3490   21.2170 C.2   292  INH292      0.2420
     26  N3         3.9950    1.8000   21.5660 N.am  292  INH292     -0.3460
     27  C21        2.7630    2.3210   20.9690 C.3   292  INH292      0.1520
     28  C18        3.8180    0.6540   22.4690 C.3   292  INH292      0.1520
     29  C20        1.5780    2.2900   21.9480 C.3   292  INH292      0.1870
     30  O5         1.5860    1.1900   22.8720 O.3   292  INH292     -0.3880
     31  C19        2.8100    1.0090   23.5500 C.3   292  INH292      0.1870
     32  O4         6.2540    1.9490   21.6710 O.2   292  INH292     -0.2710
@<TRIPOS>BOND
     1    24    23    1
     2    23     6    1
     3    23    25    1
     4     3     6    1
     5     3     2    1
     6     6     4   am
     7    27    26    1
     8    27    29    1
     9    25    26   am
    10    25    32    2
    11     2     1    1
    12    26    28    1
    13     4     1    1
    14     4     5    2
    15     1     7    1
    16    29    30    1
    17    11     9    2
    18    28    31    1
    19    30    31    1
    20    22    21   ar
    21    22    12   ar
    22     7     9    1
    23     7     8    1
    24    21    16   ar
    25     9    12    1
    26     9    10    2
    27    12    13   ar
    28    16    20   ar
    29    16    14   ar
    30    20    18   ar
    31    13    14   ar
    32    14    15   ar
    33    18    19    1
    34    18    17   ar
    35    15    17   ar
