@<TRIPOS>MOLECULE
./ligand/2ihk_lig.pdb
 70 72 0 0 0
SMALL
GASTEIGER

@<TRIPOS>ATOM
      1  C1        10.9050   -4.8560   -0.9420 C.ar  381  INH381     -0.0056
      2  C2        11.1220   -4.4560    0.3730 C.ar  381  INH381      0.0152
      3  C3        10.9800   -6.2080   -1.2670 C.ar  381  INH381      0.1230
      4  C4        11.4810   -6.7410    0.9720 C.ar  381  INH381      0.3522
      5  C5         8.9720    0.8440    3.0880 C.2   381  INH381      0.4179
      6  C6        11.1330    6.2790   -0.1890 C.2   381  INH381      0.2103
      7  C7        10.6110    4.3170    1.2660 C.3   381  INH381      0.0806
      8  C8        11.4590    3.6460    2.3680 C.3   381  INH381      0.1126
      9  C9        13.4910   -3.5790    2.7920 C.3   381  INH381      0.1135
     10  C10       13.1260   -5.0410    3.0560 C.3   381  INH381      0.1286
     11  C11       10.4960    2.8030    3.2110 C.3   381  INH381      0.1934
     12  C12       10.0670    3.1650    0.3860 C.3   381  INH381      0.1116
     13  C13       12.3100   -2.8600    3.4030 C.3   381  INH381      0.1133
     14  C14       11.6340   -5.0130    2.7380 C.3   381  INH381      0.1680
     15  C15        9.9690    1.6830    2.3110 C.3   381  INH381      0.3144
     16  C16       12.2150    6.9160   -1.0260 C.3   381  INH381      0.0122
     17  C17       12.1270   -1.4210    2.9050 C.3   381  INH381      0.0836
     18  C18        7.6650    2.7270   -2.6430 C.3   381  INH381      0.0727
     19  C19        9.1480    3.5700   -0.7610 C.3   381  INH381      0.1111
     20  C20        8.5560    2.3400   -1.4670 C.3   381  INH381      0.1065
     21  N1        11.2780   -7.1230   -0.3130 N.ar  381  INH381     -0.1783
     22  N2        11.4090   -5.3760    1.3200 N.ar  381  INH381     -0.2700
     23  N3        10.7660   -6.6000   -2.5450 N.pl3 381  INH381     -0.3430
     24  N4        11.4920    5.1290    0.4160 N.am  381  INH381     -0.3075
     25  O1         9.3580   -0.1570    3.6830 O.co2 381  INH381     -0.2401
     26  O2        12.6140    0.5560    0.0200 O.2   381  INH381     -0.5172
     27  O3        11.7730   -7.5760    1.8600 O.2   381  INH381     -0.2444
     28  O4         7.7740    1.1870    3.1340 O.co2 381  INH381     -0.2401
     29  O5        10.0060    6.7830   -0.0790 O.2   381  INH381     -0.2761
     30  O6        10.1630   -0.3560   -0.0080 O.3   381  INH381     -0.4373
     31  O7        11.1960   -3.6700    3.0000 O.3   381  INH381     -0.3456
     32  O8         9.2840    2.2890    1.2020 O.3   381  INH381     -0.3295
     33  O9        12.1220    4.5750    3.2150 O.3   381  INH381     -0.3868
     34  O10       14.7310   -3.1870    3.3980 O.3   381  INH381     -0.3864
     35  O11       13.3330   -5.3490    4.4500 O.3   381  INH381     -0.3847
     36  O12        8.4830    3.4550   -3.5630 O.3   381  INH381     -0.3924
     37  O13        8.1140    4.4050   -0.2290 O.3   381  INH381     -0.3865
     38  O14        9.6230    1.5250   -1.9760 O.3   381  INH381     -0.3869
     39  O15       11.1370    0.9330    1.9540 O.3   381  INH381     -0.2816
     40  O16       12.0070   -1.4010    1.4730 O.3   381  INH381     -0.3247
     41  F1        11.1350    2.2770    4.3220 F     381  INH381     -0.2364
     42  P1        11.4260   -0.0900    0.7210 P.3   381  INH381      0.2156
     43  H1        10.6800   -4.1240   -1.7040 H     381  INH381      0.0666
     44  H2        11.0610   -3.4100    0.6370 H     381  INH381      0.0812
     45  H3         9.8150    4.9410    1.6980 H     381  INH381      0.0551
     46  H4        12.2480    3.0490    1.8880 H     381  INH381      0.0644
     47  H5        13.6570   -3.3590    1.7270 H     381  INH381      0.0647
     48  H6        13.7060   -5.7820    2.4860 H     381  INH381      0.0665
     49  H7         9.6690    3.4260    3.5840 H     381  INH381      0.0739
     50  H8        10.9710    2.7160   -0.0510 H     381  INH381      0.0643
     51  H9        12.4330   -2.7500    4.4910 H     381  INH381      0.0647
     52  H10       11.0730   -5.7360    3.3480 H     381  INH381      0.0867
     53  H11       11.8440    7.0710   -2.0500 H     381  INH381      0.0322
     54  H12       12.4950    7.8850   -0.5870 H     381  INH381      0.0322
     55  H13       13.0950    6.2560   -1.0510 H     381  INH381      0.0322
     56  H14       12.9990   -0.8210    3.2030 H     381  INH381      0.0591
     57  H15       11.2110   -1.0020    3.3470 H     381  INH381      0.0591
     58  H16        6.8280    3.3520   -2.2990 H     381  INH381      0.0584
     59  H17        7.2360    1.8340   -3.1210 H     381  INH381      0.0584
     60  H18        9.7240    4.1210   -1.5190 H     381  INH381      0.0646
     61  H19        7.9500    1.7980   -0.7250 H     381  INH381      0.0643
     62  H20       10.5710   -5.7980   -3.1100 H     381  INH381      0.1437
     63  H21       10.7980   -7.5440   -2.8730 H     381  INH381      0.1437
     64  H22       12.4270    4.8050    0.2760 H     381  INH381      0.1491
     65  H23       12.2700    4.1790    4.0660 H     381  INH381      0.2100
     66  H24       15.3980   -3.1000    2.7270 H     381  INH381      0.2100
     67  H25       13.3780   -6.2910    4.5630 H     381  INH381      0.2101
     68  H26        7.9950    3.6160   -4.3620 H     381  INH381      0.2095
     69  H27        8.2950    4.5900    0.6850 H     381  INH381      0.2100
     70  H28        9.4730    1.3450   -2.8970 H     381  INH381      0.2100
@<TRIPOS>BOND
     1     1     2   ar
     2     1    43    1
     3     1     3   ar
     4     2    22   ar
     5     2    44    1
     6     3    23    1
     7     3    21   ar
     8     4    22   ar
     9     4    21   ar
    10     4    27    2
    11     5    15    1
    12     5    28   ar
    13     5    25   ar
    14     6    24   am
    15     6    29    2
    16     6    16    1
    17     7     8    1
    18     7    45    1
    19     7    24    1
    20     7    12    1
    21     8    11    1
    22     8    46    1
    23     8    33    1
    24     9    47    1
    25     9    34    1
    26     9    13    1
    27     9    10    1
    28    10    48    1
    29    10    35    1
    30    10    14    1
    31    11    15    1
    32    11    49    1
    33    11    41    1
    34    12    50    1
    35    12    32    1
    36    12    19    1
    37    13    31    1
    38    13    51    1
    39    13    17    1
    40    14    52    1
    41    14    31    1
    42    14    22    1
    43    15    39    1
    44    15    32    1
    45    16    55    1
    46    16    54    1
    47    16    53    1
    48    17    57    1
    49    17    56    1
    50    17    40    1
    51    18    20    1
    52    18    59    1
    53    18    58    1
    54    18    36    1
    55    19    60    1
    56    19    37    1
    57    19    20    1
    58    20    61    1
    59    20    38    1
    60    23    63    1
    61    23    62    1
    62    24    64    1
    63    26    42    2
    64    30    42    1
    65    33    65    1
    66    34    66    1
    67    35    67    1
    68    36    68    1
    69    37    69    1
    70    38    70    1
    71    39    42    1
    72    40    42    1
