@<TRIPOS>MOLECULE
/tmp/ewbell/vina_2ihk_2ihk_lig/vina/vina4.pdbqt
 54 56 0 0 0
SMALL
GASTEIGER

@<TRIPOS>ATOM
      1  C7         9.4250    3.6230   -0.6540 C.3   381  INH381      0.1470
      2  C8        10.1590    2.2660   -0.7210 C.3   381  INH381      0.1830
      3  C11       11.3600    2.3680    0.2250 C.3   381  INH381      0.2750
      4  C12        8.8990    3.7510    0.7970 C.3   381  INH381      0.1820
      5  C15       10.8060    2.5040    1.6450 C.3   381  INH381      0.2960
      6  O8        10.0080    3.6990    1.6980 O.3   381  INH381     -0.3340
      7  F1        12.1720    1.2510    0.1230 F     381  INH381     -0.2400
      8  C5        11.9590    2.6560    2.6190 C.2   381  INH381      0.2090
      9  O4        12.6370    3.7030    2.6210 O.2   381  INH381     -0.6460
     10  O1        12.2280    1.7370    3.3860 O.3   381  INH381     -0.7720
     11  H         12.7850    1.0390    3.1020 H     381  INH381      0.1670
     12  O15       10.0780    1.2890    1.8620 O.3   381  INH381     -0.2450
     13  P1         9.2180    0.7610    3.1400 P.3   381  INH381      0.3960
     14  O2         7.9090    0.3130    2.5020 O.2   381  INH381     -0.6310
     15  O6         9.2330    1.7910    4.2060 O.3   381  INH381     -0.3070
     16  H          8.4920    2.4030    4.0760 H     381  INH381      0.2220
     17  O16       10.0000   -0.5930    3.5610 O.3   381  INH381     -0.2940
     18  C17       10.9910   -1.1580    2.6860 C.3   381  INH381      0.2150
     19  C13       11.4690   -2.5100    3.2300 C.3   381  INH381      0.1800
     20  C9        12.8110   -2.9520    2.6900 C.3   381  INH381      0.1820
     21  C10       12.7740   -4.4540    2.9770 C.3   381  INH381      0.1980
     22  C14       11.3310   -4.7700    2.5940 C.3   381  INH381      0.2630
     23  O7        10.5880   -3.5580    2.8000 O.3   381  INH381     -0.3530
     24  O10       13.8990   -2.2780    3.3400 O.3   381  INH381     -0.3900
     25  H24       13.6520   -1.3780    3.5220 H     381  INH381      0.2100
     26  O11       12.9780   -4.6840    4.3860 O.3   381  INH381     -0.3880
     27  H25       12.3680   -5.3470    4.6900 H     381  INH381      0.2100
     28  N2        11.2640   -5.1980    1.1770 N.am  381  INH381     -0.2800
     29  C2        11.0150   -4.3310    0.1710 C.2   381  INH381      0.1020
     30  C1        10.9480   -4.7900   -1.1410 C.2   381  INH381      0.0650
     31  C3        11.1320   -6.1460   -1.4020 C.3   381  INH381      0.1030
     32  N3        11.0650   -6.5960   -2.6770 N.3   381  INH381     -0.3850
     33  N1        11.3920   -7.0060   -0.3880 N.am  381  INH381     -0.2950
     34  H21       11.1840   -7.5470   -2.9610 H     381  INH381      0.1570
     35  H20       10.8780   -5.8280   -3.2900 H     381  INH381      0.1570
     36  C4        11.4490   -6.5660    0.8940 C.2   381  INH381      0.3300
     37  H1        11.5460   -7.9940   -0.5900 H     381  INH381      0.1720
     38  O3        11.7030   -7.3500    1.8390 O.2   381  INH381     -0.2460
     39  O9        10.6240    1.9400   -2.0240 O.3   381  INH381     -0.3900
     40  H23        9.9990    2.2480   -2.6710 H     381  INH381      0.2100
     41  C19        8.1690    5.0460    1.1360 C.3   381  INH381      0.1800
     42  O13        8.8600    6.1260    0.5010 O.3   381  INH381     -0.3900
     43  H27        9.1110    5.8680   -0.3790 H     381  INH381      0.2100
     44  C20        8.0850    5.2610    2.6560 C.3   381  INH381      0.1730
     45  C18        6.9600    6.2180    3.0380 C.3   381  INH381      0.1980
     46  O12        6.2610    6.5390    1.8330 O.3   381  INH381     -0.3980
     47  H26        6.7310    6.1820    1.0890 H     381  INH381      0.2090
     48  O14        7.8280    4.0040    3.3010 O.3   381  INH381     -0.3910
     49  H28        7.6700    4.1490    4.2260 H     381  INH381      0.2100
     50  N4         8.2510    3.5740   -1.5350 N.am  381  INH381     -0.3520
     51  C6         8.2260    4.0090   -2.8110 C.2   381  INH381      0.2140
     52  O5         9.2110    4.5040   -3.3800 O.2   381  INH381     -0.2740
     53  C16        6.8960    3.8530   -3.5050 C.3   381  INH381      0.1170
     54  H22        7.4080    3.1890   -1.1620 H     381  INH381      0.1630
@<TRIPOS>BOND
     1    53    51    1
     2    52    51    2
     3    35    32    1
     4    34    32    1
     5    51    50   am
     6    32    31    1
     7    40    39    1
     8    39     2    1
     9    50    54    1
    10    50     1    1
    11    31    30    1
    12    31    33    1
    13    30    29    2
    14     2     1    1
    15     2     3    1
    16     1     4    1
    17    37    33    1
    18    33    36   am
    19    43    42    1
    20     7     3    1
    21    29    28    1
    22     3     5    1
    23    42    41    1
    24     4    41    1
    25     4     6    1
    26    36    28   am
    27    36    38    2
    28    47    46    1
    29    41    44    1
    30    28    22    1
    31     5     6    1
    32     5    12    1
    33     5     8    1
    34    46    45    1
    35    12    13    1
    36    14    13    2
    37    22    23    1
    38    22    21    1
    39     8     9    2
    40     8    10    1
    41    44    45    1
    42    44    48    1
    43    18    19    1
    44    18    17    1
    45    20    21    1
    46    20    19    1
    47    20    24    1
    48    23    19    1
    49    21    26    1
    50    11    10    1
    51    13    17    1
    52    13    15    1
    53    48    49    1
    54    24    25    1
    55    16    15    1
    56    26    27    1
