@<TRIPOS>MOLECULE
/tmp/ewbell/vina_2ihk_2ihk_lig/vina/vina5.pdbqt
 54 56 0 0 0
SMALL
GASTEIGER

@<TRIPOS>ATOM
      1  C7        10.6810    0.2140    1.4530 C.3   381  INH381      0.1470
      2  C8        11.5870    0.5320    0.2440 C.3   381  INH381      0.1830
      3  C11       10.6570    0.8590   -0.9290 C.3   381  INH381      0.2750
      4  C12        9.9260    1.5260    1.7760 C.3   381  INH381      0.1820
      5  C15        9.9190    2.1520   -0.5730 C.3   381  INH381      0.2960
      6  O8         9.1660    1.9180    0.6290 O.3   381  INH381     -0.3340
      7  F1        11.3720    1.0130   -2.1050 F     381  INH381     -0.2400
      8  C5         8.9470    2.4960   -1.6870 C.2   381  INH381      0.2090
      9  O4         7.8860    3.0950   -1.4210 O.2   381  INH381     -0.6460
     10  O1         9.2040    2.1620   -2.8390 O.3   381  INH381     -0.7720
     11  H          8.5430    1.7640   -3.3700 H     381  INH381      0.1670
     12  O15       10.9570    3.1320   -0.4470 O.3   381  INH381     -0.2450
     13  P1        10.9250    4.6760    0.0720 P.3   381  INH381      0.3960
     14  O2        11.7730    4.6220    1.3360 O.2   381  INH381     -0.6310
     15  O6         9.5240    5.1550    0.1130 O.3   381  INH381     -0.3070
     16  H          9.4440    5.9700   -0.4080 H     381  INH381      0.2220
     17  O16       11.8210    5.4430   -1.0380 O.3   381  INH381     -0.2940
     18  C17       11.2200    6.4210   -1.9040 C.3   381  INH381      0.2150
     19  C13       11.2520    5.9340   -3.3580 C.3   381  INH381      0.1800
     20  C9        10.8230    6.9740   -4.3660 C.3   381  INH381      0.1820
     21  C10       10.4750    6.1020   -5.5740 C.3   381  INH381      0.1980
     22  C14        9.7530    4.9500   -4.8800 C.3   381  INH381      0.2630
     23  O7        10.2950    4.8820   -3.5510 O.3   381  INH381     -0.3530
     24  O10       11.8650    7.9240   -4.6360 O.3   381  INH381     -0.3900
     25  H24       12.0780    8.3960   -3.8390 H     381  INH381      0.2100
     26  O11       11.6870    5.6280   -6.1960 O.3   381  INH381     -0.3880
     27  H25       11.9560    6.2400   -6.8720 H     381  INH381      0.2100
     28  N2         8.2960    5.2100   -4.8450 N.am  381  INH381     -0.2800
     29  C2         7.6850    5.7650   -3.7750 C.2   381  INH381      0.1020
     30  C1         6.3090    5.9740   -3.7920 C.2   381  INH381      0.0650
     31  C3         5.5740    5.6000   -4.9140 C.3   381  INH381      0.1030
     32  N3         4.2350    5.7990   -4.9310 N.3   381  INH381     -0.3850
     33  N1         6.1960    5.0540   -5.9860 N.am  381  INH381     -0.2950
     34  H21        3.6250    5.5640   -5.6890 H     381  INH381      0.1570
     35  H20        3.9500    6.2170   -4.0680 H     381  INH381      0.1570
     36  C4         7.5350    4.8390   -5.9730 C.2   381  INH381      0.3300
     37  H1         5.6520    4.8020   -6.8120 H     381  INH381      0.1720
     38  O3         8.1250    4.3490   -6.9650 O.2   381  INH381     -0.2460
     39  O9        12.4350   -0.5470   -0.1260 O.3   381  INH381     -0.3900
     40  H23       12.0000   -1.0830   -0.7790 H     381  INH381      0.2100
     41  C19        8.9180    1.4600    2.9180 C.3   381  INH381      0.1800
     42  O13        7.9840    0.4140    2.6270 O.3   381  INH381     -0.3900
     43  H27        7.2040    0.5280    3.1570 H     381  INH381      0.2100
     44  C20        8.1980    2.8040    3.1110 C.3   381  INH381      0.1730
     45  C18        7.6410    2.9590    4.5230 C.3   381  INH381      0.1980
     46  O12        7.6450    4.3570    4.8200 O.3   381  INH381     -0.3980
     47  H26        7.2260    4.8330    4.1120 H     381  INH381      0.2090
     48  O14        9.1270    3.8760    2.8880 O.3   381  INH381     -0.3910
     49  H28        8.6590    4.6410    2.5740 H     381  INH381      0.2100
     50  N4        11.5270   -0.0930    2.6140 N.am  381  INH381     -0.3520
     51  C6        11.2580   -1.0410    3.5340 C.2   381  INH381      0.2140
     52  O5        10.2510   -1.7630    3.4920 O.2   381  INH381     -0.2740
     53  C16       12.2820   -1.1590    4.6350 C.3   381  INH381      0.1170
     54  H22       12.3640    0.4400    2.7300 H     381  INH381      0.1630
@<TRIPOS>BOND
     1    38    36    2
     2    27    26    1
     3    37    33    1
     4    26    21    1
     5    33    36   am
     6    33    31    1
     7    36    28   am
     8    34    32    1
     9    21    22    1
    10    21    20    1
    11    32    31    1
    12    32    35    1
    13    31    30    1
    14    22    28    1
    15    22    23    1
    16    28    29    1
    17    24    20    1
    18    24    25    1
    19    20    19    1
    20    30    29    2
    21    23    19    1
    22    11    10    1
    23    19    18    1
    24    10     8    1
    25     7     3    1
    26    18    17    1
    27     8     9    2
    28     8     5    1
    29    17    13    1
    30     3     5    1
    31     3     2    1
    32    40    39    1
    33     5    12    1
    34     5     6    1
    35    12    13    1
    36    16    15    1
    37    39     2    1
    38    13    15    1
    39    13    14    2
    40     2     1    1
    41     6     4    1
    42     1     4    1
    43     1    50    1
    44     4    41    1
    45    49    48    1
    46    50    54    1
    47    50    51   am
    48    42    41    1
    49    42    43    1
    50    48    44    1
    51    41    44    1
    52    44    45    1
    53    52    51    2
    54    51    53    1
    55    47    46    1
    56    45    46    1
