@<TRIPOS>MOLECULE
/tmp/ewbell/vina_2ihk_2ihk_lig/vina/vina3.pdbqt
 54 56 0 0 0
SMALL
GASTEIGER

@<TRIPOS>ATOM
      1  C7         8.3390    3.3360   -4.4680 C.3   381  INH381      0.1470
      2  C8         7.9140    3.0450   -3.0130 C.3   381  INH381      0.1830
      3  C11        8.3370    1.6030   -2.7120 C.3   381  INH381      0.2750
      4  C12        9.8860    3.2640   -4.4830 C.3   381  INH381      0.1820
      5  C15        9.8660    1.5640   -2.7450 C.3   381  INH381      0.2960
      6  O8        10.2930    1.9600   -4.0590 O.3   381  INH381     -0.3340
      7  F1         7.8640    1.1920   -1.4760 F     381  INH381     -0.2400
      8  C5        10.3360    0.1430   -2.4970 C.2   381  INH381      0.2090
      9  O4        10.4940   -0.6350   -3.4590 O.2   381  INH381     -0.6460
     10  O1        10.5370   -0.2360   -1.3480 O.3   381  INH381     -0.7720
     11  H         11.2410   -0.8270   -1.1670 H     381  INH381      0.1670
     12  O15       10.2680    2.4520   -1.6940 O.3   381  INH381     -0.2450
     13  P1        11.7420    2.9240   -1.1860 P.3   381  INH381      0.3960
     14  O2        11.4910    4.3480   -0.7080 O.2   381  INH381     -0.6310
     15  O6        12.7430    2.6380   -2.2400 O.3   381  INH381     -0.3070
     16  H         13.2920    3.4250   -2.3870 H     381  INH381      0.2220
     17  O16       11.9610    2.0340    0.1490 O.3   381  INH381     -0.2940
     18  C17       11.6310    2.5720    1.4400 C.3   381  INH381      0.2150
     19  C13       10.5240    1.7380    2.0960 C.3   381  INH381      0.1800
     20  C9        10.8420    1.2890    3.5040 C.3   381  INH381      0.1820
     21  C10        9.8630    0.1260    3.6810 C.3   381  INH381      0.1980
     22  C14        9.9810   -0.5400    2.3120 C.3   381  INH381      0.2630
     23  O7        10.3530    0.4990    1.3930 O.3   381  INH381     -0.3530
     24  O10       10.6490    2.3410    4.4610 O.3   381  INH381     -0.3900
     25  H24       11.3720    2.9560    4.4070 H     381  INH381      0.2100
     26  O11        8.5290    0.6400    3.8720 O.3   381  INH381     -0.3880
     27  H25        8.4860    1.5350    3.5570 H     381  INH381      0.2100
     28  N2        11.0100   -1.6050    2.3530 N.am  381  INH381     -0.2800
     29  C2        12.2780   -1.4030    1.9320 C.2   381  INH381      0.1020
     30  C1        13.2000   -2.4440    1.9790 C.2   381  INH381      0.0650
     31  C3        12.8010   -3.6900    2.4550 C.3   381  INH381      0.1030
     32  N3        13.6950   -4.7060    2.4980 N.3   381  INH381     -0.3850
     33  N1        11.5300   -3.8820    2.8840 N.am  381  INH381     -0.2950
     34  H21       13.5020   -5.6320    2.8230 H     381  INH381      0.1570
     35  H20       14.5780   -4.3850    2.1560 H     381  INH381      0.1570
     36  C4        10.6240   -2.8740    2.8320 C.2   381  INH381      0.3300
     37  H1        11.2520   -4.7930    3.2500 H     381  INH381      0.1720
     38  O3         9.4500   -3.0340    3.2410 O.2   381  INH381     -0.2460
     39  O9         6.5140    3.1700   -2.7970 O.3   381  INH381     -0.3900
     40  H23        6.0970    2.3250   -2.9210 H     381  INH381      0.2100
     41  C19       10.5570    3.4720   -5.8360 C.3   381  INH381      0.1800
     42  O13       11.6330    2.5350   -5.9470 O.3   381  INH381     -0.3900
     43  H27       11.3290    1.7540   -6.3950 H     381  INH381      0.2100
     44  C20       11.0610    4.9150   -5.9970 C.3   381  INH381      0.1730
     45  C18       12.3120    4.9910   -6.8660 C.3   381  INH381      0.1980
     46  O12       11.9830    4.3920   -8.1220 O.3   381  INH381     -0.3980
     47  H26       11.2500    4.8540   -8.5110 H     381  INH381      0.2090
     48  O14       10.0430    5.7070   -6.6260 O.3   381  INH381     -0.3910
     49  H28       10.3950    6.5620   -6.8420 H     381  INH381      0.2100
     50  N4         7.9690    4.7170   -4.8050 N.am  381  INH381     -0.3520
     51  C6         6.8170    5.0830   -5.4030 C.2   381  INH381      0.2140
     52  O5         5.9370    4.2750   -5.7350 O.2   381  INH381     -0.2740
     53  C16        6.6750    6.5640   -5.6460 C.3   381  INH381      0.1170
     54  H22        8.6190    5.4390   -4.5740 H     381  INH381      0.1630
@<TRIPOS>BOND
     1    47    46    1
     2    46    45    1
     3    45    44    1
     4    49    48    1
     5    48    44    1
     6    43    42    1
     7    44    41    1
     8    42    41    1
     9    41     4    1
    10    52    51    2
    11    53    51    1
    12    51    50   am
    13    50    54    1
    14    50     1    1
    15     4     1    1
    16     4     6    1
    17     1     2    1
    18     6     5    1
    19     9     8    2
    20     2    39    1
    21     2     3    1
    22    40    39    1
    23     5     3    1
    24     5     8    1
    25     5    12    1
    26     3     7    1
    27     8    10    1
    28    16    15    1
    29    15    13    1
    30    12    13    1
    31    10    11    1
    32    13    14    2
    33    13    17    1
    34    17    18    1
    35    23    19    1
    36    23    22    1
    37    18    19    1
    38    29    30    2
    39    29    28    1
    40    30    31    1
    41    19    20    1
    42    35    32    1
    43    22    28    1
    44    22    21    1
    45    28    36   am
    46    31    32    1
    47    31    33    1
    48    32    34    1
    49    36    33   am
    50    36    38    2
    51    33    37    1
    52    20    21    1
    53    20    24    1
    54    27    26    1
    55    21    26    1
    56    25    24    1
