@<TRIPOS>MOLECULE
/tmp/ewbell/vina_2ihk_2ihk_lig/vina/vina2.pdbqt
 54 56 0 0 0
SMALL
GASTEIGER

@<TRIPOS>ATOM
      1  C7         9.3470    3.7120   -2.5100 C.3   381  INH381      0.1470
      2  C8         8.9340    2.2240   -2.5280 C.3   381  INH381      0.1830
      3  C11       10.2220    1.4090   -2.3740 C.3   381  INH381      0.2750
      4  C12        9.9300    3.9750   -1.0990 C.3   381  INH381      0.1820
      5  C15       10.7770    1.6990   -0.9780 C.3   381  INH381      0.2960
      6  O8        11.0490    3.1080   -0.8920 O.3   381  INH381     -0.3340
      7  F1         9.9770    0.0540   -2.5300 F     381  INH381     -0.2400
      8  C5        12.0830    0.9490   -0.7920 C.2   381  INH381      0.2090
      9  O4        13.1670    1.5600   -0.8690 O.2   381  INH381     -0.6460
     10  O1        12.0610   -0.2610   -0.5870 O.3   381  INH381     -0.7720
     11  H         11.2430   -0.7160   -0.5550 H     381  INH381      0.1670
     12  O15        9.7590    1.2310   -0.0850 O.3   381  INH381     -0.2450
     13  P1         9.7260    1.0970    1.5380 P.3   381  INH381      0.3960
     14  O2         8.2340    1.0350    1.8390 O.2   381  INH381     -0.6310
     15  O6        10.5820    2.1460    2.1380 O.3   381  INH381     -0.3070
     16  H         10.2780    3.0200    1.8450 H     381  INH381      0.2220
     17  O16       10.2960   -0.3980    1.7830 O.3   381  INH381     -0.2940
     18  C17        9.8090   -1.1880    2.8820 C.3   381  INH381      0.2150
     19  C13       10.8680   -2.2110    3.3120 C.3   381  INH381      0.1800
     20  C9        12.1530   -2.1390    2.5170 C.3   381  INH381      0.1820
     21  C10       12.7590   -3.5160    2.7950 C.3   381  INH381      0.1980
     22  C14       11.5100   -4.3890    2.6980 C.3   381  INH381      0.2630
     23  O7        10.4050   -3.5440    3.0550 O.3   381  INH381     -0.3530
     24  O10       12.9900   -1.0550    2.9470 O.3   381  INH381     -0.3900
     25  H24       12.8110   -0.2870    2.4160 H     381  INH381      0.2100
     26  O11       13.2900   -3.5520    4.1350 O.3   381  INH381     -0.3880
     27  H25       13.0300   -4.3630    4.5570 H     381  INH381      0.2100
     28  N2        11.3580   -4.9070    1.3190 N.am  381  INH381     -0.2800
     29  C2        10.9770   -4.1200    0.2890 C.2   381  INH381      0.1020
     30  C1        10.8360   -4.6630   -0.9850 C.2   381  INH381      0.0650
     31  C3        11.0830   -6.0200   -1.1810 C.3   381  INH381      0.1030
     32  N3        10.9430   -6.5510   -2.4180 N.3   381  INH381     -0.3850
     33  N1        11.4740   -6.7990   -0.1440 N.am  381  INH381     -0.2950
     34  H21       11.0970   -7.5100   -2.6570 H     381  INH381      0.1570
     35  H20       10.6610   -5.8350   -3.0570 H     381  INH381      0.1570
     36  C4        11.6040   -6.2780    1.1010 C.2   381  INH381      0.3300
     37  H1        11.6730   -7.7870   -0.3020 H     381  INH381      0.1720
     38  O3        11.9810   -6.9850    2.0650 O.2   381  INH381     -0.2460
     39  O9         8.2810    1.8340   -3.7290 O.3   381  INH381     -0.3900
     40  H23        8.7570    1.1160   -4.1300 H     381  INH381      0.2100
     41  C19       10.4600    5.3810   -0.8410 C.3   381  INH381      0.1800
     42  O13       11.7280    5.5050   -1.4950 O.3   381  INH381     -0.3900
     43  H27       11.6620    6.1420   -2.1960 H     381  INH381      0.2100
     44  C20       10.5850    5.6660    0.6640 C.3   381  INH381      0.1730
     45  C18        9.2690    5.4370    1.4020 C.3   381  INH381      0.1980
     46  O12        9.5910    4.7760    2.6280 O.3   381  INH381     -0.3980
     47  H26        9.1290    5.1960    3.3450 H     381  INH381      0.2090
     48  O14       11.5650    4.7870    1.2350 O.3   381  INH381     -0.3910
     49  H28       11.5620    4.8800    2.1800 H     381  INH381      0.2100
     50  N4         8.1420    4.5420   -2.6390 N.am  381  INH381     -0.3520
     51  C6         7.6420    4.9980   -3.8050 C.2   381  INH381      0.2140
     52  O5         8.1580    4.7580   -4.9070 O.2   381  INH381     -0.2740
     53  C16        6.3950    5.8360   -3.6720 C.3   381  INH381      0.1170
     54  H22        7.6570    4.7860   -1.8010 H     381  INH381      0.1630
@<TRIPOS>BOND
     1    52    51    2
     2    40    39    1
     3    51    53    1
     4    51    50   am
     5    39     2    1
     6    35    32    1
     7    34    32    1
     8    50     1    1
     9    50    54    1
    10     7     3    1
    11     2     1    1
    12     2     3    1
    13     1     4    1
    14    32    31    1
    15     3     5    1
    16    43    42    1
    17    42    41    1
    18    31    30    1
    19    31    33    1
    20     4     6    1
    21     4    41    1
    22    30    29    2
    23     5     6    1
    24     5     8    1
    25     5    12    1
    26     9     8    2
    27    41    44    1
    28     8    10    1
    29    10    11    1
    30    37    33    1
    31    33    36   am
    32    12    13    1
    33    29    28    1
    34    44    48    1
    35    44    45    1
    36    36    28   am
    37    36    38    2
    38    48    49    1
    39    28    22    1
    40    45    46    1
    41    13    17    1
    42    13    14    2
    43    13    15    1
    44    17    18    1
    45    16    15    1
    46    25    24    1
    47    20    21    1
    48    20    24    1
    49    20    19    1
    50    46    47    1
    51    22    21    1
    52    22    23    1
    53    21    26    1
    54    18    19    1
    55    23    19    1
    56    26    27    1
