@<TRIPOS>MOLECULE
/tmp/ewbell/vina_2ihk_2ihk_lig/vina/vina1.pdbqt
 54 56 0 0 0
SMALL
GASTEIGER

@<TRIPOS>ATOM
      1  C7        10.4100    4.2810    0.5650 C.3   381  INH381      0.1470
      2  C8        11.1440    3.7460    1.8140 C.3   381  INH381      0.1830
      3  C11       10.1270    2.9060    2.5950 C.3   381  INH381      0.2750
      4  C12       10.0460    3.0370   -0.2810 C.3   381  INH381      0.1820
      5  C15        9.7820    1.6930    1.7280 C.3   381  INH381      0.2960
      6  O8         9.2130    2.1740    0.4980 O.3   381  INH381     -0.3340
      7  F1        10.6460    2.5030    3.8140 F     381  INH381     -0.2400
      8  C5         8.7400    0.8500    2.4390 C.2   381  INH381      0.2090
      9  O4         8.8580   -0.3910    2.4660 O.2   381  INH381     -0.6460
     10  O1         7.7760    1.3970    2.9660 O.3   381  INH381     -0.7720
     11  H          6.9190    1.2870    2.6030 H     381  INH381      0.1670
     12  O15       11.0250    0.9950    1.5790 O.3   381  INH381     -0.2450
     13  P1        11.5540   -0.0310    0.4310 P.3   381  INH381      0.3960
     14  O2        12.6690    0.7620   -0.2400 O.2   381  INH381     -0.6310
     15  O6        10.4010   -0.5360   -0.3510 O.3   381  INH381     -0.3070
     16  H         10.1410   -1.4090   -0.0170 H     381  INH381      0.2220
     17  O16       12.2840   -1.1890    1.2960 O.3   381  INH381     -0.2940
     18  C17       12.2050   -1.1780    2.7320 C.3   381  INH381      0.2150
     19  C13       12.2830   -2.6080    3.2790 C.3   381  INH381      0.1800
     20  C9        13.4550   -3.4060    2.7540 C.3   381  INH381      0.1820
     21  C10       12.9990   -4.8390    3.0380 C.3   381  INH381      0.1980
     22  C14       11.5290   -4.7420    2.6370 C.3   381  INH381      0.2630
     23  O7        11.1510   -3.3710    2.8370 O.3   381  INH381     -0.3530
     24  O10       14.6800   -3.0610    3.4180 O.3   381  INH381     -0.3900
     25  H24       15.0740   -2.3110    2.9860 H     381  INH381      0.2100
     26  O11       13.1140   -5.1140    4.4490 O.3   381  INH381     -0.3880
     27  H25       13.0020   -6.0460    4.6000 H     381  INH381      0.2100
     28  N2        11.3630   -5.1360    1.2190 N.am  381  INH381     -0.2800
     29  C2        11.0980   -4.2380    0.2440 C.2   381  INH381      0.1020
     30  C1        10.9370   -4.6660   -1.0700 C.2   381  INH381      0.0650
     31  C3        11.0430   -6.0230   -1.3650 C.3   381  INH381      0.1030
     32  N3        10.8830   -6.4430   -2.6420 N.3   381  INH381     -0.3850
     33  N1        11.3190   -6.9150   -0.3840 N.am  381  INH381     -0.2950
     34  H21       10.9420   -7.3930   -2.9500 H     381  INH381      0.1570
     35  H20       10.6980   -5.6550   -3.2300 H     381  INH381      0.1570
     36  C4        11.4680   -6.5050    0.9010 C.2   381  INH381      0.3300
     37  H1        11.4150   -7.9050   -0.6130 H     381  INH381      0.1720
     38  O3        11.7390   -7.3190    1.8150 O.2   381  INH381     -0.2460
     39  O9        11.6420    4.7730    2.6600 O.3   381  INH381     -0.3900
     40  H23       12.3090    4.4160    3.2350 H     381  INH381      0.2100
     41  C19        9.2620    3.2990   -1.5620 C.3   381  INH381      0.1800
     42  O13        7.8760    3.4130   -1.2200 O.3   381  INH381     -0.3900
     43  H27        7.3840    2.7280   -1.6580 H     381  INH381      0.2100
     44  C20        9.4860    2.1840   -2.5960 C.3   381  INH381      0.1730
     45  C18       10.9660    1.9700   -2.8970 C.3   381  INH381      0.1980
     46  O12       11.1610    0.5610   -3.0400 O.3   381  INH381     -0.3980
     47  H26       10.3780    0.1020   -2.7560 H     381  INH381      0.2090
     48  O14        8.9600    0.9500   -2.0850 O.3   381  INH381     -0.3910
     49  H28        8.1370    1.1150   -1.6410 H     381  INH381      0.2100
     50  N4        11.3480    5.0840   -0.2300 N.am  381  INH381     -0.3520
     51  C6        11.2490    6.4150   -0.4270 C.2   381  INH381      0.2140
     52  O5        10.3390    7.1070    0.0520 O.2   381  INH381     -0.2740
     53  C16       12.3360    7.0070   -1.2880 C.3   381  INH381      0.1170
     54  H22       12.1160    4.6100   -0.6570 H     381  INH381      0.1630
@<TRIPOS>BOND
     1    35    32    1
     2    46    45    1
     3    46    47    1
     4    34    32    1
     5    45    44    1
     6    32    31    1
     7    44    48    1
     8    44    41    1
     9    48    49    1
    10    43    42    1
    11    41    42    1
    12    41     4    1
    13    31    30    1
    14    31    33    1
    15    53    51    1
    16    30    29    2
    17    54    50    1
    18    37    33    1
    19    51    50   am
    20    51    52    2
    21    33    36   am
    22    15    16    1
    23    15    13    1
    24     4     6    1
    25     4     1    1
    26    14    13    2
    27    50     1    1
    28    29    28    1
    29    13    17    1
    30    13    12    1
    31     6     5    1
    32     1     2    1
    33    36    28   am
    34    36    38    2
    35    28    22    1
    36    17    18    1
    37    12     5    1
    38     5     8    1
    39     5     3    1
    40     2     3    1
    41     2    39    1
    42     8     9    2
    43     8    10    1
    44     3     7    1
    45    11    10    1
    46    22    23    1
    47    22    21    1
    48    39    40    1
    49    18    19    1
    50    20    21    1
    51    20    19    1
    52    20    24    1
    53    23    19    1
    54    25    24    1
    55    21    26    1
    56    26    27    1
