@<TRIPOS>MOLECULE
./ligand/2pog_lig.pdb
 39 42 0 0 0
SMALL
GASTEIGER

@<TRIPOS>ATOM
      1  C1        14.5050   51.0830   58.9950 C.ar  457  INH457      0.0391
      2  C2        15.8900   50.8660   58.6040 C.ar  457  INH457      0.1238
      3  O1        16.9020   51.3380   59.2370 O.3   457  INH457     -0.5064
      4  C3        16.0760   50.0670   57.4220 C.ar  457  INH457     -0.0197
      5  C4        15.0010   49.5080   56.6680 C.ar  457  INH457     -0.0548
      6  C5        13.6700   49.7320   57.0740 C.ar  457  INH457     -0.0194
      7  C6        13.4230   50.5100   58.2250 C.ar  457  INH457      0.1283
      8  O2        12.0970   50.6770   58.5540 O.3   457  INH457     -0.4835
      9  C7        11.7640   51.9600   59.1550 C.3   457  INH457      0.1285
     10  C8        12.6450   52.2650   60.4200 C.3   457  INH457      0.0073
     11  C9        14.1540   51.9210   60.2370 C.3   457  INH457     -0.0024
     12  C10       14.5790   51.2410   61.5600 C.3   457  INH457     -0.0456
     13  C11       13.4980   51.5960   62.5590 C.3   457  INH457     -0.0521
     14  C12       12.2370   51.5520   61.7220 C.3   457  INH457     -0.0459
     15  C13       10.2580   52.0450   59.4310 C.ar  457  INH457     -0.0069
     16  C14        9.4580   50.8660   59.3060 C.ar  457  INH457     -0.0516
     17  C15        8.0670   50.9000   59.5580 C.ar  457  INH457     -0.0198
     18  C16        7.3750   52.0940   59.9470 C.ar  457  INH457      0.1169
     19  O3         6.1260   52.1100   60.1730 O.3   457  INH457     -0.5068
     20  C17        8.2010   53.2630   60.0640 C.ar  457  INH457     -0.0198
     21  C18        9.6070   53.2550   59.8170 C.ar  457  INH457     -0.0516
     22  H1        17.0940   49.8780   57.0840 H     457  INH457      0.0654
     23  H2        15.2080   48.9100   55.7820 H     457  INH457      0.0620
     24  H3        16.6010   51.8380   59.9870 H     457  INH457      0.2921
     25  H4        12.8460   49.3120   56.5090 H     457  INH457      0.0654
     26  H5        11.9990   52.7370   58.4130 H     457  INH457      0.0787
     27  H6        12.5590   53.3480   60.5920 H     457  INH457      0.0346
     28  H7        14.7060   52.8670   60.1390 H     457  INH457      0.0355
     29  H8        15.5540   51.6250   61.8950 H     457  INH457      0.0271
     30  H9        14.6400   50.1500   61.4300 H     457  INH457      0.0271
     31  H10       13.6600   52.6000   62.9780 H     457  INH457      0.0266
     32  H11       13.4570   50.8600   63.3760 H     457  INH457      0.0266
     33  H12       11.9330   50.5140   61.5230 H     457  INH457      0.0269
     34  H13       11.4150   52.0850   62.2210 H     457  INH457      0.0269
     35  H14        9.9270   49.9280   59.0120 H     457  INH457      0.0623
     36  H15        7.4990   49.9830   59.4520 H     457  INH457      0.0654
     37  H16        5.7690   51.2400   60.0400 H     457  INH457      0.2921
     38  H17        7.7320   54.2010   60.3550 H     457  INH457      0.0654
     39  H18       10.1830   54.1730   59.9230 H     457  INH457      0.0623
@<TRIPOS>BOND
     1     1    11    1
     2     1     7   ar
     3     1     2   ar
     4     2     4   ar
     5     2     3    1
     6     3    24    1
     7     4    22    1
     8     4     5   ar
     9     5    23    1
    10     5     6   ar
    11     6    25    1
    12     6     7   ar
    13     7     8    1
    14     8     9    1
    15     9    26    1
    16     9    15    1
    17     9    10    1
    18    10    27    1
    19    10    14    1
    20    10    11    1
    21    11    28    1
    22    11    12    1
    23    12    30    1
    24    12    29    1
    25    12    13    1
    26    13    32    1
    27    13    31    1
    28    13    14    1
    29    14    34    1
    30    14    33    1
    31    15    21   ar
    32    15    16   ar
    33    16    35    1
    34    16    17   ar
    35    17    36    1
    36    17    18   ar
    37    18    20   ar
    38    18    19    1
    39    19    37    1
    40    20    38    1
    41    20    21   ar
    42    21    39    1
