@<TRIPOS>MOLECULE
/tmp/ewbell/vina_2pog_2pog_lig/vina/vina1.pdbqt
 23 26 0 0 0
SMALL
GASTEIGER

@<TRIPOS>ATOM
      1  C1        14.4640   51.1500   58.7210 C.ar  457  INH457      0.0130
      2  C2        15.8480   51.0500   58.2820 C.ar  457  INH457      0.0750
      3  C3        16.0560   50.2960   57.0740 C.ar  457  INH457      0.0370
      4  C4        15.0030   49.6740   56.3390 C.ar  457  INH457      0.0050
      5  C5        13.6730   49.7840   56.7910 C.ar  457  INH457      0.0370
      6  C6        13.4040   50.5130   57.9690 C.ar  457  INH457      0.0790
      7  O2        12.0810   50.5690   58.3430 O.3   457  INH457     -0.3400
      8  C7        11.6700   51.8070   58.9880 C.3   457  INH457      0.1660
      9  C8        12.5660   52.1490   60.2330 C.3   457  INH457      0.0280
     10  C9        14.0900   51.9280   59.9950 C.3   457  INH457      0.0310
     11  C10       14.6090   51.2510   61.2860 C.3   457  INH457      0.0100
     12  C11       13.5370   51.4970   62.3260 C.3   457  INH457      0.0010
     13  C12       12.2560   51.3760   61.5270 C.3   457  INH457      0.0080
     14  C13       10.1720   51.7690   59.3120 C.ar  457  INH457     -0.0280
     15  C18        9.4410   52.9170   59.7430 C.ar  457  INH457      0.0120
     16  C17        8.0470   52.8100   60.0330 C.ar  457  INH457      0.0370
     17  C16        7.3120   51.5810   59.9180 C.ar  457  INH457      0.0650
     18  C15        8.0820   50.4530   59.4830 C.ar  457  INH457      0.0370
     19  C14        9.4630   50.5330   59.1880 C.ar  457  INH457      0.0120
     20  O3         6.0740   51.4950   60.1830 O.3   457  INH457     -0.3610
     21  H16        5.6940   52.3650   60.2060 H     457  INH457      0.2170
     22  O1        16.8410   51.5840   58.8960 O.3   457  INH457     -0.3600
     23  H3        16.5250   52.0560   59.6570 H     457  INH457      0.2170
@<TRIPOS>BOND
     1     4     5   ar
     2     4     3   ar
     3     5     6   ar
     4     3     2   ar
     5     6     7    1
     6     6     1   ar
     7     2     1   ar
     8     2    22    1
     9     7     8    1
    10     1    10    1
    11    22    23    1
    12     8    14    1
    13     8     9    1
    14    19    14   ar
    15    19    18   ar
    16    14    15   ar
    17    18    17   ar
    18    15    16   ar
    19    17    16   ar
    20    17    20    1
    21    10     9    1
    22    10    11    1
    23    20    21    1
    24     9    13    1
    25    11    12    1
    26    13    12    1
