@<TRIPOS>MOLECULE
/tmp/ewbell/vina_2pog_2pog_lig/vina/vina2.pdbqt
 23 26 0 0 0
SMALL
GASTEIGER

@<TRIPOS>ATOM
      1  C1        14.0740   50.1580   60.3710 C.ar  457  INH457      0.0130
      2  C2        15.3230   49.5640   60.8230 C.ar  457  INH457      0.0750
      3  C3        15.6400   49.7800   62.2090 C.ar  457  INH457      0.0370
      4  C4        14.8130   50.5240   63.1030 C.ar  457  INH457      0.0050
      5  C5        13.6100   51.0920   62.6350 C.ar  457  INH457      0.0370
      6  C6        13.2440   50.9120   61.2840 C.ar  457  INH457      0.0790
      7  O2        12.0580   51.5010   60.9090 O.3   457  INH457     -0.3400
      8  C7        11.2990   50.7790   59.8990 C.3   457  INH457      0.1660
      9  C8        12.1550   50.4910   58.6130 C.3   457  INH457      0.0280
     10  C9        13.6050   50.0060   58.9140 C.3   457  INH457      0.0310
     11  C10       14.5040   50.7660   57.9100 C.3   457  INH457      0.0100
     12  C11       13.5640   51.2860   56.8430 C.3   457  INH457      0.0010
     13  C12       12.3310   51.6670   57.6350 C.3   457  INH457      0.0080
     14  C13        9.9820   51.5050   59.6000 C.ar  457  INH457     -0.0280
     15  C18        8.8370   50.8440   59.0630 C.ar  457  INH457      0.0120
     16  C17        7.6420   51.5830   58.8040 C.ar  457  INH457      0.0370
     17  C16        7.5180   52.9920   59.0540 C.ar  457  INH457      0.0650
     18  C15        8.6900   53.6170   59.5940 C.ar  457  INH457      0.0370
     19  C14        9.8840   52.9080   59.8610 C.ar  457  INH457      0.0120
     20  O3         6.4530   53.6400   58.8160 O.3   457  INH457     -0.3610
     21  H16        5.8950   53.6250   59.5840 H     457  INH457      0.2170
     22  O1        16.1130   48.8850   60.0720 O.3   457  INH457     -0.3600
     23  H3        16.4160   49.4310   59.3560 H     457  INH457      0.2170
@<TRIPOS>BOND
     1    12    13    1
     2    12    11    1
     3    13     9    1
     4    11    10    1
     5     9    10    1
     6     9     8    1
     7    16    17   ar
     8    16    15   ar
     9    20    17    1
    10    20    21    1
    11    10     1    1
    12    17    18   ar
    13    15    14   ar
    14    23    22    1
    15    18    19   ar
    16    14    19   ar
    17    14     8    1
    18     8     7    1
    19    22     2    1
    20     1     2   ar
    21     1     6   ar
    22     2     3   ar
    23     7     6    1
    24     6     5   ar
    25     3     4   ar
    26     5     4   ar
