@<TRIPOS>MOLECULE
/tmp/ewbell/vina_2pog_2pog_lig/vina/vina5.pdbqt
 23 26 0 0 0
SMALL
GASTEIGER

@<TRIPOS>ATOM
      1  C1        17.3780   53.9180   67.8070 C.ar  457  INH457      0.0130
      2  C2        17.7090   54.9240   66.8080 C.ar  457  INH457      0.0750
      3  C3        19.1010   54.9960   66.4490 C.ar  457  INH457      0.0370
      4  C4        20.1090   54.1610   67.0160 C.ar  457  INH457      0.0050
      5  C5        19.7580   53.1980   67.9850 C.ar  457  INH457      0.0370
      6  C6        18.4080   53.0780   68.3770 C.ar  457  INH457      0.0790
      7  O2        18.1510   52.1170   69.3290 O.3   457  INH457     -0.3400
      8  C7        16.8620   51.4520   69.2070 C.3   457  INH457      0.1660
      9  C8        15.6700   52.4750   69.1820 C.3   457  INH457      0.0280
     10  C9        15.9280   53.7240   68.2860 C.3   457  INH457      0.0310
     11  C10       15.4000   54.9270   69.1030 C.3   457  INH457      0.0100
     12  C11       14.5100   54.3270   70.1700 C.3   457  INH457      0.0010
     13  C12       15.2400   53.0530   70.5420 C.3   457  INH457      0.0080
     14  C13       16.7130   50.3750   70.2890 C.ar  457  INH457     -0.0280
     15  C18       16.1120   49.1050   70.0400 C.ar  457  INH457      0.0120
     16  C17       16.0010   48.1480   71.0950 C.ar  457  INH457      0.0370
     17  C16       16.4670   48.3940   72.4320 C.ar  457  INH457      0.0650
     18  C15       17.0640   49.6800   72.6390 C.ar  457  INH457      0.0370
     19  C14       17.1870   50.6440   71.6100 C.ar  457  INH457      0.0120
     20  O3        16.3590   47.5390   73.3640 O.3   457  INH457     -0.3610
     21  H16       17.2010   47.4260   73.7890 H     457  INH457      0.2170
     22  O1        16.8530   55.7070   66.2600 O.3   457  INH457     -0.3600
     23  H3        16.9950   56.5950   66.5670 H     457  INH457      0.2170
@<TRIPOS>BOND
     1    22    23    1
     2    22     2    1
     3     3     2   ar
     4     3     4   ar
     5     2     1   ar
     6     4     5   ar
     7     1    10    1
     8     1     6   ar
     9     5     6   ar
    10    10    11    1
    11    10     9    1
    12     6     7    1
    13    11    12    1
    14     9     8    1
    15     9    13    1
    16     8     7    1
    17     8    14    1
    18    15    14   ar
    19    15    16   ar
    20    12    13    1
    21    14    19   ar
    22    16    17   ar
    23    19    18   ar
    24    17    18   ar
    25    17    20    1
    26    20    21    1
