@<TRIPOS>MOLECULE
/tmp/ewbell/vina_2pog_2pog_lig/vina/vina4.pdbqt
 23 26 0 0 0
SMALL
GASTEIGER

@<TRIPOS>ATOM
      1  C1        18.2040   53.7300   68.3390 C.ar  457  INH457      0.0130
      2  C2        18.2850   52.8340   69.4830 C.ar  457  INH457      0.0750
      3  C3        19.4760   52.0300   69.5500 C.ar  457  INH457      0.0370
      4  C4        20.5190   52.0800   68.5770 C.ar  457  INH457      0.0050
      5  C5        20.4110   52.9550   67.4780 C.ar  457  INH457      0.0370
      6  C6        19.2660   53.7710   67.3580 C.ar  457  INH457      0.0790
      7  O2        19.2370   54.5930   66.2540 O.3   457  INH457     -0.3400
      8  C7        18.5840   55.8780   66.4550 C.3   457  INH457      0.1660
      9  C8        17.1220   55.7160   67.0090 C.3   457  INH457      0.0280
     10  C9        16.9880   54.6520   68.1390 C.3   457  INH457      0.0310
     11  C10       15.6910   53.8740   67.8130 C.3   457  INH457      0.0100
     12  C11       14.9360   54.7450   66.8310 C.3   457  INH457      0.0010
     13  C12       16.0430   55.3320   65.9800 C.3   457  INH457      0.0080
     14  C13       18.6570   56.7190   65.1750 C.ar  457  INH457     -0.0280
     15  C18       18.2530   58.0870   65.1220 C.ar  457  INH457      0.0120
     16  C17       18.3430   58.8120   63.8950 C.ar  457  INH457      0.0370
     17  C16       18.8270   58.2330   62.6730 C.ar  457  INH457      0.0650
     18  C15       19.2230   56.8580   62.7690 C.ar  457  INH457      0.0370
     19  C14       19.1450   56.1190   63.9720 C.ar  457  INH457      0.0120
     20  O3        18.8990   58.8840   61.5860 O.3   457  INH457     -0.3610
     21  H16       18.1540   58.6690   61.0380 H     457  INH457      0.2170
     22  O1        17.3830   52.7390   70.3920 O.3   457  INH457     -0.3600
     23  H3        17.0670   51.8430   70.4310 H     457  INH457      0.2170
@<TRIPOS>BOND
     1    21    20    1
     2    20    17    1
     3    17    18   ar
     4    17    16   ar
     5    18    19   ar
     6    16    15   ar
     7    19    14   ar
     8    15    14   ar
     9    14     8    1
    10    13    12    1
    11    13     9    1
    12     7     8    1
    13     7     6    1
    14     8     9    1
    15    12    11    1
    16     9    10    1
    17     6     5   ar
    18     6     1   ar
    19     5     4   ar
    20    11    10    1
    21    10     1    1
    22     1     2   ar
    23     4     3   ar
    24     2     3   ar
    25     2    22    1
    26    22    23    1
