@<TRIPOS>MOLECULE
/tmp/ewbell/vina_2pog_2pog_lig/vina/vina3.pdbqt
 23 26 0 0 0
SMALL
GASTEIGER

@<TRIPOS>ATOM
      1  C1        17.8770   50.4010   73.2690 C.ar  457  INH457      0.0130
      2  C2        17.5910   49.8880   74.6010 C.ar  457  INH457      0.0750
      3  C3        18.6940   49.9260   75.5230 C.ar  457  INH457      0.0370
      4  C4        19.9910   50.4180   75.1850 C.ar  457  INH457      0.0050
      5  C5        20.2390   50.9040   73.8860 C.ar  457  INH457      0.0370
      6  C6        19.1940   50.8950   72.9360 C.ar  457  INH457      0.0790
      7  O2        19.5210   51.3830   71.6920 O.3   457  INH457     -0.3400
      8  C7        18.4490   52.0810   70.9980 C.3   457  INH457      0.1660
      9  C8        17.1540   51.1990   70.8750 C.3   457  INH457      0.0280
     10  C9        16.7900   50.4260   72.1790 C.3   457  INH457      0.0310
     11  C10       16.3770   49.0100   71.7100 C.3   457  INH457      0.0100
     12  C11       16.1030   49.1430   70.2270 C.3   457  INH457      0.0010
     13  C12       17.1640   50.1230   69.7740 C.3   457  INH457      0.0080
     14  C13       18.9450   52.6170   69.6500 C.ar  457  INH457     -0.0280
     15  C18       20.1360   52.1460   69.0180 C.ar  457  INH457      0.0120
     16  C17       20.5440   52.6930   67.7640 C.ar  457  INH457      0.0370
     17  C16       19.8120   53.7210   67.0790 C.ar  457  INH457      0.0650
     18  C15       18.6240   54.1660   67.7460 C.ar  457  INH457      0.0370
     19  C14       18.1970   53.6400   68.9870 C.ar  457  INH457      0.0120
     20  O3        20.1860   54.2040   65.9660 O.3   457  INH457     -0.3610
     21  H16       20.4280   53.4980   65.3800 H     457  INH457      0.2170
     22  O1        16.4490   49.4300   74.9690 O.3   457  INH457     -0.3600
     23  H3        16.3410   48.5460   74.6380 H     457  INH457      0.2170
@<TRIPOS>BOND
     1    21    20    1
     2    20    17    1
     3    17    18   ar
     4    17    16   ar
     5    18    19   ar
     6    16    15   ar
     7    19    14   ar
     8    15    14   ar
     9    14     8    1
    10    13    12    1
    11    13     9    1
    12    12    11    1
    13     9     8    1
    14     9    10    1
    15     8     7    1
    16     7     6    1
    17    11    10    1
    18    10     1    1
    19     6     1   ar
    20     6     5   ar
    21     1     2   ar
    22     5     4   ar
    23     2    22    1
    24     2     3   ar
    25    23    22    1
    26     4     3   ar
