@<TRIPOS>MOLECULE
./ligand/2qu6_lig.pdb
 63 67 0 0 0
SMALL
GASTEIGER

@<TRIPOS>ATOM
      1  C1        39.6450   38.4890   10.4420 C.ar  294  INH294     -0.0381
      2  C2        38.7970   37.4690   10.9550 C.ar  294  INH294     -0.0388
      3  C3        37.6380   37.8100   11.7690 C.ar  294  INH294      0.0385
      4  C4        37.2520   39.1400   12.0840 C.ar  294  INH294      0.0028
      5  C5        38.0880   40.1830   11.5640 C.ar  294  INH294      0.1408
      6  C6        39.2510   39.8260   10.7710 C.ar  294  INH294      0.0826
      7  C7        40.9570   27.6530   13.2560 C.ar  294  INH294      0.1288
      8  N1        40.9480   27.7800   11.8820 N.ar  294  INH294     -0.2501
      9  C8        40.1950   28.5270   14.0560 C.ar  294  INH294      0.0112
     10  C9        39.4410   29.4710   13.3130 C.ar  294  INH294      0.1321
     11  C10       39.4360   29.5680   11.8620 C.ar  294  INH294     -0.0012
     12  C11       40.2500   28.6630   11.1300 C.ar  294  INH294      0.0319
     13  C12       38.6950   32.6260   13.5220 C.ar  294  INH294      0.0098
     14  C13       37.8610   33.6870   13.0770 C.ar  294  INH294      0.1147
     15  C14       36.4470   33.4940   12.8460 C.ar  294  INH294      0.1572
     16  C15       35.7930   32.2230   13.1150 C.ar  294  INH294     -0.0136
     17  C16       36.5820   31.1190   13.6090 C.ar  294  INH294     -0.0157
     18  C17       38.0140   31.3540   13.7710 C.ar  294  INH294      0.1307
     19  C18       36.9340   35.5190   12.5550 C.ar  294  INH294      0.2928
     20  N2        36.7430   36.9140   12.2430 N.pl3 294  INH294     -0.2688
     21  N3        38.1380   34.9840   12.9020 N.ar  294  INH294     -0.1951
     22 Cl1        40.2450   41.0850   10.1650 Cl    294  INH294     -0.0798
     23  O1        38.7070   30.2420   14.1750 O.3   294  INH294     -0.4558
     24  O2        35.8870   34.6340   12.5110 O.2   294  INH294     -0.4243
     25  C19       41.6870   26.5810   13.9270 C.2   294  INH294      0.2623
     26  O3        41.6550   26.4290   15.1430 O.2   294  INH294     -0.2685
     27  N4        42.4110   25.7570   13.1440 N.am  294  INH294     -0.3132
     28  C20       43.1400   24.7140   13.8860 C.3   294  INH294      0.0004
     29  O4        37.7660   41.5070   11.8390 O.3   294  INH294     -0.4849
     30  C21       36.9760   41.7190   13.0240 C.3   294  INH294      0.1320
     31  N5        37.5600   43.9470   13.9550 N.4   294  INH294      0.2376
     32  C22       38.4760   44.8730   13.2250 C.3   294  INH294     -0.0316
     33  C23       38.0680   44.7030   11.7730 C.3   294  INH294     -0.0073
     34  C24       36.8280   43.8450   11.7420 C.3   294  INH294     -0.0017
     35  C25       36.5800   43.1900   13.0970 C.3   294  INH294      0.0139
     36  C26       37.1500   44.3340   15.3240 C.3   294  INH294     -0.0427
     37  H1        40.5240   38.2710    9.8460 H     294  INH294      0.0634
     38  H2        39.0150   36.4290   10.7380 H     294  INH294      0.0637
     39  H3        36.3750   39.3550   12.6840 H     294  INH294      0.0673
     40  H4        40.1860   28.4820   15.1390 H     294  INH294      0.0677
     41  H5        38.8290   30.3090   11.3540 H     294  INH294      0.0669
     42  H6        40.3080   28.6780   10.0480 H     294  INH294      0.0831
     43  H7        39.7620   32.7500   13.6670 H     294  INH294      0.0677
     44  H8        34.7290   32.1060   12.9470 H     294  INH294      0.0656
     45  H9        36.1330   30.1620   13.8480 H     294  INH294      0.0655
     46  H10       35.7930   37.2780   12.4030 H     294  INH294      0.1565
     47  H11       42.4500   25.8460   12.1490 H     294  INH294      0.1487
     48  H12       43.7030   24.0870   13.1790 H     294  INH294      0.0426
     49  H13       42.4240   24.0900   14.4400 H     294  INH294      0.0426
     50  H14       43.8380   25.1870   14.5930 H     294  INH294      0.0426
     51  H15       37.5650   41.4510   13.9130 H     294  INH294      0.0754
     52  H16       36.0710   41.0950   12.9810 H     294  INH294      0.0754
     53  H17       38.2030   43.2030   14.1780 H     294  INH294      0.2035
     54  H18       39.5270   44.5850   13.3740 H     294  INH294      0.0814
     55  H19       38.3300   45.9120   13.5550 H     294  INH294      0.0814
     56  H20       38.8770   44.2130   11.2120 H     294  INH294      0.0319
     57  H21       37.8550   45.6850   11.3260 H     294  INH294      0.0319
     58  H22       36.9530   43.0610   10.9810 H     294  INH294      0.0323
     59  H23       35.9630   44.4730   11.4830 H     294  INH294      0.0323
     60  H24       35.5410   43.3010   13.4410 H     294  INH294      0.0885
     61  H25       37.9730   44.8760   15.8140 H     294  INH294      0.0778
     62  H26       36.9090   43.4310   15.9040 H     294  INH294      0.0778
     63  H27       36.2640   44.9830   15.2720 H     294  INH294      0.0778
@<TRIPOS>BOND
     1     1     2   ar
     2     1    37    1
     3     1     6   ar
     4     2     3   ar
     5     2    38    1
     6     3     4   ar
     7     3    20    1
     8     4     5   ar
     9     4    39    1
    10     5    29    1
    11     5     6   ar
    12     6    22    1
    13     7     9   ar
    14     7    25    1
    15     7     8   ar
    16     8    12   ar
    17     9    10   ar
    18     9    40    1
    19    10    23    1
    20    10    11   ar
    21    11    12   ar
    22    11    41    1
    23    12    42    1
    24    13    14   ar
    25    13    43    1
    26    13    18   ar
    27    14    21   ar
    28    14    15   ar
    29    15    16   ar
    30    15    24   ar
    31    16    17   ar
    32    16    44    1
    33    17    18   ar
    34    17    45    1
    35    18    23    1
    36    19    20    1
    37    19    24   ar
    38    19    21   ar
    39    20    46    1
    40    25    27   am
    41    25    26    2
    42    27    47    1
    43    27    28    1
    44    28    50    1
    45    28    49    1
    46    28    48    1
    47    29    30    1
    48    30    35    1
    49    30    52    1
    50    30    51    1
    51    31    53    1
    52    31    36    1
    53    31    35    1
    54    31    32    1
    55    32    55    1
    56    32    54    1
    57    32    33    1
    58    33    57    1
    59    33    56    1
    60    33    34    1
    61    34    59    1
    62    34    58    1
    63    34    35    1
    64    35    60    1
    65    36    63    1
    66    36    62    1
    67    36    61    1
