@<TRIPOS>MOLECULE
/tmp/ewbell/vina_2qu6_2qu6_lig/vina/vina4.pdbqt
 41 45 0 0 0
SMALL
GASTEIGER

@<TRIPOS>ATOM
      1  C12       36.5670   41.2090   14.1810 C.ar  294  INH294      0.0690
      2  C13       35.7480   41.4780   15.3110 C.ar  294  INH294      0.0720
      3  C14       34.6670   42.4380   15.2520 C.ar  294  INH294      0.1060
      4  C15       34.3230   43.1290   14.0200 C.ar  294  INH294      0.0420
      5  C16       35.0940   42.8640   12.8270 C.ar  294  INH294      0.0400
      6  C17       36.2070   41.9300   12.9590 C.ar  294  INH294      0.0780
      7  C18       34.6760   41.5070   17.1380 C.3   294  INH294      0.2300
      8  N3        35.7180   40.8910   16.5130 N.pl3 294  INH294     -0.3190
      9  H3        36.3280   40.1590   16.8740 H     294  INH294      0.1690
     10  O2        34.0190   42.4540   16.3940 O.3   294  INH294     -0.2770
     11  N2        34.2710   41.2100   18.4900 N.pl3 294  INH294     -0.3220
     12  C3        33.1310   40.6290   18.9280 C.ar  294  INH294      0.0380
     13  C2        32.3560   39.6540   18.1730 C.ar  294  INH294      0.0310
     14  C4        32.8350   41.0170   20.2630 C.ar  294  INH294      0.0680
     15  C1        31.2080   39.0430   18.7460 C.ar  294  INH294      0.0290
     16  C6        30.9140   39.4460   20.0880 C.ar  294  INH294      0.0670
     17  C5        31.6870   40.4020   20.8610 C.ar  294  INH294      0.0920
     18 Cl1        29.5390   38.7270   20.8170 Cl    294  INH294     -0.0810
     19  H10       34.9430   41.4770   19.2230 H     294  INH294      0.1690
     20  O4        31.3420   40.7400   22.1650 O.3   294  INH294     -0.3470
     21  C21       32.4460   40.9150   23.0730 C.3   294  INH294      0.2090
     22  C25       32.2220   40.0350   24.2980 C.3   294  INH294      0.2110
     23  N5        32.3890   38.5840   23.9310 N.4   294  INH294     -0.0690
     24  H17       32.6410   38.6810   22.9590 H     294  INH294      0.2800
     25  C26       31.1770   37.7460   23.7860 C.3   294  INH294      0.2700
     26  C22       33.6220   37.9240   24.4560 C.3   294  INH294      0.2350
     27  C23       34.3200   39.0330   25.2200 C.3   294  INH294      0.0300
     28  C24       33.3860   40.2160   25.2670 C.3   294  INH294      0.0370
     29  O1        36.9350   41.7830   11.8050 O.3   294  INH294     -0.3110
     30  C9        37.8360   40.7670   11.6200 C.2   294  INH294      0.0790
     31  C8        37.1760   39.5220   11.7810 C.2   294  INH294      0.0720
     32  C7        38.0100   38.4060   11.5680 C.3   294  INH294      0.1030
     33  N1        39.3440   38.5820   11.2640 N.pl3 294  INH294     -0.3610
     34  C11       40.0180   39.7460   11.1030 C.2   294  INH294      0.0910
     35  H1        39.8920   37.7290   11.1450 H     294  INH294      0.1650
     36  C10       39.2410   40.9220   11.2780 C.2   294  INH294      0.0540
     37  C19       37.3970   37.0820   11.6130 C.2   294  INH294      0.2670
     38  N4        37.1640   36.5620   12.8330 N.am  294  INH294     -0.3600
     39  H11       37.3940   37.0380   13.6820 H     294  INH294      0.1620
     40  C20       36.5390   35.2280   12.8060 C.3   294  INH294      0.1490
     41  O3        37.0980   36.4650   10.5960 O.2   294  INH294     -0.2660
@<TRIPOS>BOND
     1    41    37    2
     2    34    33    1
     3    34    36    2
     4    35    33    1
     5    33    32    1
     6    36    30    1
     7    32    37    1
     8    32    31    1
     9    37    38   am
    10    30    31    2
    11    30    29    1
    12    29     6    1
    13    40    38    1
    14     5     6   ar
    15     5     4   ar
    16    38    39    1
    17     6     1   ar
    18     4     3   ar
    19     1     2   ar
    20     3     2   ar
    21     3    10    1
    22     2     8    1
    23    10     7    1
    24     8     9    1
    25     8     7    1
    26     7    11    1
    27    13    15   ar
    28    13    12   ar
    29    11    12    1
    30    11    19    1
    31    15    16   ar
    32    12    14   ar
    33    16    18    1
    34    16    17   ar
    35    14    17   ar
    36    17    20    1
    37    20    21    1
    38    24    23    1
    39    21    22    1
    40    25    23    1
    41    23    22    1
    42    23    26    1
    43    22    28    1
    44    26    27    1
    45    27    28    1
