@<TRIPOS>MOLECULE
/tmp/ewbell/vina_2qu6_2qu6_lig/vina/vina1.pdbqt
 41 45 0 0 0
SMALL
GASTEIGER

@<TRIPOS>ATOM
      1  C12       38.7240   32.6910   13.6830 C.ar  294  INH294      0.0690
      2  C13       37.8710   33.7100   13.1810 C.ar  294  INH294      0.0720
      3  C14       36.4820   33.4530   12.8730 C.ar  294  INH294      0.1060
      4  C15       35.8700   32.1570   13.1200 C.ar  294  INH294      0.0420
      5  C16       36.6770   31.0930   13.6700 C.ar  294  INH294      0.0400
      6  C17       38.0850   31.3930   13.9080 C.ar  294  INH294      0.0780
      7  C18       36.8960   35.4950   12.5880 C.3   294  INH294      0.2300
      8  N3        38.1010   35.0170   13.0080 N.pl3 294  INH294     -0.3190
      9  H3        38.9690   35.5320   13.1540 H     294  INH294      0.1690
     10  O2        35.8930   34.5650   12.4950 O.3   294  INH294     -0.2770
     11  N2        36.6630   36.8780   12.2500 N.pl3 294  INH294     -0.3220
     12  C3        37.4960   37.7600   11.6530 C.ar  294  INH294      0.0380
     13  C2        38.5360   37.4000   10.6990 C.ar  294  INH294      0.0310
     14  C4        37.1660   39.0970   12.0010 C.ar  294  INH294      0.0680
     15  C1        39.3180   38.4060   10.0690 C.ar  294  INH294      0.0290
     16  C6        38.9820   39.7500   10.4310 C.ar  294  INH294      0.0670
     17  C5        37.9360   40.1260   11.3660 C.ar  294  INH294      0.0920
     18 Cl1        39.8990   40.9930    9.6870 Cl    294  INH294     -0.0810
     19  H10       35.7330   37.2430   12.4970 H     294  INH294      0.1690
     20  O4        37.6640   41.4560   11.6650 O.3   294  INH294     -0.3470
     21  C21       38.0830   41.8950   12.9710 C.3   294  INH294      0.2090
     22  C25       38.2670   43.4090   12.9480 C.3   294  INH294      0.2110
     23  N5        38.5410   43.8750   11.5420 N.4   294  INH294     -0.0690
     24  H17       38.4720   42.9960   11.0530 H     294  INH294      0.2800
     25  C26       39.9260   44.2490   11.1770 C.3   294  INH294      0.2700
     26  C22       37.4300   44.6270   10.8850 C.3   294  INH294      0.2350
     27  C23       36.3410   44.6470   11.9420 C.3   294  INH294      0.0300
     28  C24       36.9260   44.0840   13.2130 C.3   294  INH294      0.0370
     29  O1        38.8020   30.3150   14.3630 O.3   294  INH294     -0.3110
     30  C9        39.4780   29.4670   13.5260 C.2   294  INH294      0.0790
     31  C8        40.2100   28.5310   14.3000 C.2   294  INH294      0.0720
     32  C7        40.9100   27.5820   13.5290 C.3   294  INH294      0.1030
     33  N1        40.8690   27.6360   12.1510 N.pl3 294  INH294     -0.3610
     34  C11       40.1900   28.5090   11.3700 C.2   294  INH294      0.0910
     35  H1        41.4180   26.9300   11.6600 H     294  INH294      0.1650
     36  C10       39.4360   29.4880   12.0720 C.2   294  INH294      0.0540
     37  C19       41.6110   26.5150   14.2390 C.2   294  INH294      0.2670
     38  N4        42.3530   25.6750   13.4920 N.am  294  INH294     -0.3600
     39  H11       42.4320   25.7540   12.4980 H     294  INH294      0.1620
     40  C20       43.0370   24.6270   14.2700 C.3   294  INH294      0.1490
     41  O3        41.5410   26.3840   15.4560 O.2   294  INH294     -0.2660
@<TRIPOS>BOND
     1    18    16    1
     2    15    16   ar
     3    15    13   ar
     4    16    17   ar
     5    13    12   ar
     6    26    23    1
     7    26    27    1
     8    24    23    1
     9    25    23    1
    10    17    20    1
    11    17    14   ar
    12    34    36    2
    13    34    33    1
    14    23    22    1
    15    12    14   ar
    16    12    11    1
    17    35    33    1
    18    20    21    1
    19    27    28    1
    20    36    30    1
    21    33    32    1
    22    11    19    1
    23    11     7    1
    24    10     7    1
    25    10     3    1
    26    39    38    1
    27     7     8    1
    28     3     4   ar
    29     3     2   ar
    30    22    21    1
    31    22    28    1
    32     8     9    1
    33     8     2    1
    34     4     5   ar
    35     2     1   ar
    36    38    37   am
    37    38    40    1
    38    30    31    2
    39    30    29    1
    40    32    37    1
    41    32    31    1
    42     5     6   ar
    43     1     6   ar
    44     6    29    1
    45    37    41    2
