@<TRIPOS>MOLECULE
/tmp/ewbell/vina_2qu6_2qu6_lig/vina/vina3.pdbqt
 41 45 0 0 0
SMALL
GASTEIGER

@<TRIPOS>ATOM
      1  C12       32.1010   33.1550   -1.5790 C.ar  294  INH294      0.0690
      2  C13       31.0520   32.2080   -1.4270 C.ar  294  INH294      0.0720
      3  C14       31.2070   31.0320   -0.6010 C.ar  294  INH294      0.1060
      4  C15       32.4180   30.7880    0.1660 C.ar  294  INH294      0.0420
      5  C16       33.5030   31.7380    0.0840 C.ar  294  INH294      0.0400
      6  C17       33.3140   32.8770   -0.8070 C.ar  294  INH294      0.0780
      7  C18       29.2400   31.1140   -1.3410 C.3   294  INH294      0.2300
      8  N3        29.7890   32.2440   -1.8690 N.pl3 294  INH294     -0.3190
      9  H3        29.3450   32.9470   -2.4580 H     294  INH294      0.1690
     10  O2        30.0800   30.3560   -0.5660 O.3   294  INH294     -0.2770
     11  N2        27.8730   30.7130   -1.5680 N.pl3 294  INH294     -0.3220
     12  C3        27.0960   29.8850   -0.8340 C.ar  294  INH294      0.0380
     13  C2        27.2170   29.6980    0.6060 C.ar  294  INH294      0.0310
     14  C4        26.0790   29.2920   -1.6290 C.ar  294  INH294      0.0680
     15  C1        26.3070   28.8600    1.3050 C.ar  294  INH294      0.0290
     16  C6        25.2910   28.2600    0.4940 C.ar  294  INH294      0.0670
     17  C5        25.1450   28.4520   -0.9390 C.ar  294  INH294      0.0920
     18 Cl1        24.1700   27.2450    1.3010 Cl    294  INH294     -0.0810
     19  H10       27.4280   31.1120   -2.4070 H     294  INH294      0.1690
     20  O4        24.1270   27.8390   -1.6600 O.3   294  INH294     -0.3470
     21  C21       24.5510   26.8230   -2.5890 C.3   294  INH294      0.2090
     22  C25       25.3950   25.7930   -1.8450 C.3   294  INH294      0.2110
     23  N5        24.7990   24.4200   -2.0110 N.4   294  INH294     -0.0690
     24  H17       24.0240   24.6400   -2.6170 H     294  INH294      0.2800
     25  C26       24.0590   23.8280   -0.8740 C.3   294  INH294      0.2700
     26  C22       25.5640   23.4880   -2.8930 C.3   294  INH294      0.2350
     27  C23       26.7480   24.3210   -3.3460 C.3   294  INH294      0.0300
     28  C24       26.7240   25.6140   -2.5700 C.3   294  INH294      0.0370
     29  O1        34.4110   33.6960   -0.8860 O.3   294  INH294     -0.3110
     30  C9        34.3940   35.0020   -0.4720 C.2   294  INH294      0.0790
     31  C8        35.0490   35.1040    0.7820 C.2   294  INH294      0.0720
     32  C7        35.1230   36.4200    1.2780 C.3   294  INH294      0.1030
     33  N1        34.5610   37.4640    0.5710 N.pl3 294  INH294     -0.3610
     34  C11       33.9260   37.4160   -0.6240 C.2   294  INH294      0.0910
     35  H1        34.6340   38.3850    1.0020 H     294  INH294      0.1650
     36  C10       33.8290   36.1240   -1.2050 C.2   294  INH294      0.0540
     37  C19       35.8680   36.6390    2.5150 C.2   294  INH294      0.2670
     38  N4        35.3850   37.5720    3.3570 N.am  294  INH294     -0.3600
     39  H11       34.5610   38.1060    3.1660 H     294  INH294      0.1620
     40  C20       36.1810   37.7380    4.5860 C.3   294  INH294      0.1490
     41  O3        36.8820   36.0060    2.7870 O.2   294  INH294     -0.2660
@<TRIPOS>BOND
     1    27    26    1
     2    27    28    1
     3    26    23    1
     4    24    23    1
     5    21    22    1
     6    21    20    1
     7    28    22    1
     8     9     8    1
     9    19    11    1
    10    23    22    1
    11    23    25    1
    12     8     2    1
    13     8     7    1
    14    20    17    1
    15    14    17   ar
    16    14    12   ar
    17     1     2   ar
    18     1     6   ar
    19    11     7    1
    20    11    12    1
    21     2     3   ar
    22     7    10    1
    23    36    34    2
    24    36    30    1
    25    17    16   ar
    26    29     6    1
    27    29    30    1
    28    12    13   ar
    29     6     5   ar
    30    34    33    1
    31     3    10    1
    32     3     4   ar
    33    30    31    2
    34     5     4   ar
    35    16    18    1
    36    16    15   ar
    37    33    35    1
    38    33    32    1
    39    13    15   ar
    40    31    32    1
    41    32    37    1
    42    37    41    2
    43    37    38   am
    44    39    38    1
    45    38    40    1
