@<TRIPOS>MOLECULE
/tmp/ewbell/vina_2qu6_2qu6_lig/vina/vina2.pdbqt
 41 45 0 0 0
SMALL
GASTEIGER

@<TRIPOS>ATOM
      1  C12       38.3690   31.7230   14.5310 C.ar  294  INH294      0.0690
      2  C13       38.1250   32.8680   13.7260 C.ar  294  INH294      0.0720
      3  C14       38.3920   32.8650   12.3040 C.ar  294  INH294      0.1060
      4  C15       38.8620   31.6740   11.6150 C.ar  294  INH294      0.0420
      5  C16       39.0870   30.4670   12.3750 C.ar  294  INH294      0.0400
      6  C17       38.8550   30.5430   13.8140 C.ar  294  INH294      0.0780
      7  C18       37.5140   34.6970   12.8490 C.3   294  INH294      0.2300
      8  N3        37.5530   34.0360   14.0400 N.pl3 294  INH294     -0.3190
      9  H3        37.2250   34.3540   14.9510 H     294  INH294      0.1690
     10  O2        38.0200   34.0090   11.7760 O.3   294  INH294     -0.2770
     11  N2        36.9900   36.0320   12.6980 N.pl3 294  INH294     -0.3220
     12  C3        37.5580   37.1070   12.1060 C.ar  294  INH294      0.0380
     13  C2        38.5030   37.0390   10.9990 C.ar  294  INH294      0.0310
     14  C4        37.0440   38.3200   12.6370 C.ar  294  INH294      0.0680
     15  C1        38.9940   38.2280   10.3940 C.ar  294  INH294      0.0290
     16  C6        38.4750   39.4450   10.9410 C.ar  294  INH294      0.0670
     17  C5        37.5190   39.5300   12.0310 C.ar  294  INH294      0.0920
     18 Cl1        39.0390   40.9010   10.2340 Cl    294  INH294     -0.0810
     19  H10       36.0530   36.1880   13.0950 H     294  INH294      0.1690
     20  O4        37.0560   40.7510   12.5070 O.3   294  INH294     -0.3470
     21  C21       36.7250   40.7850   13.9080 C.3   294  INH294      0.2090
     22  C25       36.5610   42.2380   14.3430 C.3   294  INH294      0.2110
     23  N5        36.9090   43.1600   13.2040 N.4   294  INH294     -0.0690
     24  H17       37.1100   42.4800   12.4870 H     294  INH294      0.2800
     25  C26       38.2080   43.8690   13.2390 C.3   294  INH294      0.2700
     26  C22       35.7560   43.8700   12.5740 C.3   294  INH294      0.2350
     27  C23       34.5580   43.3660   13.3570 C.3   294  INH294      0.0300
     28  C24       35.0770   42.5470   14.5120 C.3   294  INH294      0.0370
     29  O1        39.1570   29.3800   14.4760 O.3   294  INH294     -0.3110
     30  C9        40.0390   28.4540   13.9850 C.2   294  INH294      0.0790
     31  C8        40.7120   27.8290   15.0650 C.2   294  INH294      0.0720
     32  C7        41.6160   26.8250   14.6660 C.3   294  INH294      0.1030
     33  N1        41.8020   26.5460   13.3280 N.pl3 294  INH294     -0.3610
     34  C11       41.1870   27.1150   12.2640 C.2   294  INH294      0.0910
     35  H1        42.4880   25.8220   13.1140 H     294  INH294      0.1650
     36  C10       40.2410   28.1250   12.5820 C.2   294  INH294      0.0540
     37  C19       42.2810   26.0560   15.7140 C.2   294  INH294      0.2670
     38  N4        42.0800   26.4590   16.9840 N.am  294  INH294     -0.3600
     39  H11       41.5110   27.2460   17.2220 H     294  INH294      0.1620
     40  C20       42.7750   25.6380   17.9900 C.3   294  INH294      0.1490
     41  O3        42.9870   25.0850   15.4650 O.2   294  INH294     -0.2660
@<TRIPOS>BOND
     1    18    16    1
     2    15    16   ar
     3    15    13   ar
     4    16    17   ar
     5    13    12   ar
     6     4     3   ar
     7     4     5   ar
     8    10     3    1
     9    10     7    1
    10    17    20    1
    11    17    14   ar
    12    12    14   ar
    13    12    11    1
    14    34    36    2
    15    34    33    1
    16     3     2   ar
    17     5     6   ar
    18    24    23    1
    19    20    21    1
    20    26    23    1
    21    26    27    1
    22    36    30    1
    23    11     7    1
    24    11    19    1
    25     7     8    1
    26    35    33    1
    27    23    25    1
    28    23    22    1
    29    33    32    1
    30    27    28    1
    31     2     8    1
    32     2     1   ar
    33     6    29    1
    34     6     1   ar
    35    21    22    1
    36    30    29    1
    37    30    31    2
    38     8     9    1
    39    22    28    1
    40    32    31    1
    41    32    37    1
    42    41    37    2
    43    37    38   am
    44    38    39    1
    45    38    40    1
