@<TRIPOS>MOLECULE
/tmp/ewbell/vina_2qu6_2qu6_lig/vina/vina5.pdbqt
 41 45 0 0 0
SMALL
GASTEIGER

@<TRIPOS>ATOM
      1  C12       36.5200   41.2290   14.1800 C.ar  294  INH294      0.0690
      2  C13       35.7140   41.4960   15.3180 C.ar  294  INH294      0.0720
      3  C14       34.6360   42.4590   15.2750 C.ar  294  INH294      0.1060
      4  C15       34.2810   43.1570   14.0490 C.ar  294  INH294      0.0420
      5  C16       35.0390   42.8940   12.8480 C.ar  294  INH294      0.0400
      6  C17       36.1500   41.9560   12.9640 C.ar  294  INH294      0.0780
      7  C18       34.6610   41.5200   17.1570 C.3   294  INH294      0.2300
      8  N3        35.6950   40.9040   16.5180 N.pl3 294  INH294     -0.3190
      9  H3        36.3060   40.1680   16.8700 H     294  INH294      0.1690
     10  O2        33.9990   42.4730   16.4240 O.3   294  INH294     -0.2770
     11  N2        34.2690   41.2190   18.5120 N.pl3 294  INH294     -0.3220
     12  C3        33.1370   40.6310   18.9590 C.ar  294  INH294      0.0380
     13  C2        32.3610   39.6520   18.2090 C.ar  294  INH294      0.0310
     14  C4        32.8500   41.0140   20.2960 C.ar  294  INH294      0.0680
     15  C1        31.2220   39.0330   18.7900 C.ar  294  INH294      0.0290
     16  C6        30.9360   39.4330   20.1350 C.ar  294  INH294      0.0670
     17  C5        31.7110   40.3920   20.9040 C.ar  294  INH294      0.0920
     18 Cl1        29.5720   38.7040   20.8750 Cl    294  INH294     -0.0810
     19  H10       34.9460   41.4890   19.2390 H     294  INH294      0.1690
     20  O4        31.3750   40.7260   22.2110 O.3   294  INH294     -0.3470
     21  C21       30.7470   42.0110   22.3790 C.3   294  INH294      0.2090
     22  C25       31.1640   42.5930   23.7260 C.3   294  INH294      0.2110
     23  N5        30.7650   44.0430   23.8090 N.4   294  INH294     -0.0690
     24  H17       30.3000   44.1450   22.9200 H     294  INH294      0.2800
     25  C26       31.8140   45.0760   23.6550 C.3   294  INH294      0.2700
     26  C22       29.6310   44.3470   24.7320 C.3   294  INH294      0.2350
     27  C23       29.2540   42.9880   25.2910 C.3   294  INH294      0.0300
     28  C24       30.2890   41.9970   24.8240 C.3   294  INH294      0.0370
     29  O1        36.8650   41.8120   11.8020 O.3   294  INH294     -0.3110
     30  C9        37.7860   40.8150   11.6160 C.2   294  INH294      0.0790
     31  C8        37.1530   39.5570   11.7800 C.2   294  INH294      0.0720
     32  C7        38.0100   38.4580   11.5670 C.3   294  INH294      0.1030
     33  N1        39.3400   38.6610   11.2600 N.pl3 294  INH294     -0.3610
     34  C11       39.9880   39.8390   11.0960 C.2   294  INH294      0.0910
     35  H1        39.9040   37.8200   11.1410 H     294  INH294      0.1650
     36  C10       39.1870   40.9990   11.2720 C.2   294  INH294      0.0540
     37  C19       37.4240   37.1220   11.6140 C.2   294  INH294      0.2670
     38  N4        37.1870   36.6050   12.8360 N.am  294  INH294     -0.3600
     39  H11       37.3970   37.0930   13.6830 H     294  INH294      0.1620
     40  C20       36.5910   35.2580   12.8110 C.3   294  INH294      0.1490
     41  O3        37.1510   36.4910   10.5990 O.2   294  INH294     -0.2660
@<TRIPOS>BOND
     1    41    37    2
     2    34    33    1
     3    34    36    2
     4    35    33    1
     5    33    32    1
     6    36    30    1
     7    32    37    1
     8    32    31    1
     9    37    38   am
    10    30    31    2
    11    30    29    1
    12    29     6    1
    13    40    38    1
    14    38    39    1
    15     5     6   ar
    16     5     4   ar
    17     6     1   ar
    18     4     3   ar
    19     1     2   ar
    20     3     2   ar
    21     3    10    1
    22     2     8    1
    23    10     7    1
    24     8     9    1
    25     8     7    1
    26     7    11    1
    27    13    15   ar
    28    13    12   ar
    29    11    12    1
    30    11    19    1
    31    15    16   ar
    32    12    14   ar
    33    16    18    1
    34    16    17   ar
    35    14    17   ar
    36    17    20    1
    37    20    21    1
    38    21    22    1
    39    24    23    1
    40    25    23    1
    41    22    23    1
    42    22    28    1
    43    23    26    1
    44    26    27    1
    45    28    27    1
