@<TRIPOS>MOLECULE
./ligand/1xl5_lig.pdb
 77 79 0 0 0
SMALL
GASTEIGER

@<TRIPOS>ATOM
      1  C1        16.6650   18.7630    3.4410 C.ar  203  INH203      0.1270
      2  C2        16.5430   18.1930    2.1710 C.ar  203  INH203     -0.0085
      3  C3        15.4830   18.7010    1.2020 C.3   203  INH203     -0.0362
      4  C4        17.4130   17.1790    1.7680 C.ar  203  INH203     -0.0554
      5  C5        18.3360   16.6520    2.6670 C.ar  203  INH203     -0.0610
      6  C6        18.4580   17.2150    3.9390 C.ar  203  INH203     -0.0554
      7  C7        17.6320   18.2710    4.3210 C.ar  203  INH203     -0.0085
      8  C8        17.7680   18.8810    5.7130 C.3   203  INH203     -0.0362
      9  O1        15.8330   19.8140    3.8350 O.3   203  INH203     -0.4822
     10  C9        14.7020   19.3290    4.5510 C.3   203  INH203      0.1652
     11  C10       13.8550   20.4540    5.0650 C.2   203  INH203      0.2510
     12  O2        12.7490   20.1580    5.5160 O.2   203  INH203     -0.2721
     13  N1        14.5170   21.5830    5.3930 N.am  203  INH203     -0.3069
     14  C11       13.8140   22.6680    6.0500 C.3   203  INH203      0.0531
     15  C12       14.7340   23.2720    7.1380 C.3   203  INH203     -0.0067
     16  C13       15.1030   22.1330    8.0840 C.ar  203  INH203     -0.0445
     17  C14       14.1320   21.4430    8.8010 C.ar  203  INH203     -0.0584
     18  C15       14.5020   20.3860    9.6460 C.ar  203  INH203     -0.0605
     19  C16       15.8660   20.0610    9.7700 C.ar  203  INH203     -0.0477
     20 Br1        18.6530   20.4050    9.1620 Br    203  INH203     -0.0503
     21  C17       16.8250   20.7690    9.0420 C.ar  203  INH203      0.0181
     22  C18       16.4520   21.8180    8.2160 C.ar  203  INH203     -0.0445
     23  C19       13.4280   23.7410    4.9990 C.3   203  INH203      0.0756
     24  O3        14.6100   24.5090    4.7010 O.3   203  INH203     -0.3899
     25  C20       12.3630   24.6560    5.6450 C.3   203  INH203     -0.0024
     26  C21       10.9820   24.0190    5.7370 C.3   203  INH203      0.0846
     27  S1        10.3960   23.7390    7.3860 S.O2  203  INH203     -0.0002
     28  O4        11.4940   23.4780    8.3070 O.2   203  INH203     -0.1691
     29  O5         9.3260   22.7380    7.3360 O.2   203  INH203     -0.1691
     30  C22        9.6330   25.2370    7.9580 C.ar  203  INH203      0.0886
     31  C23       10.3690   26.2150    8.6210 C.ar  203  INH203     -0.0342
     32  C24        9.7360   27.3910    9.0750 C.ar  203  INH203     -0.0247
     33  C25        8.3680   27.5550    8.8560 C.ar  203  INH203      0.1235
     34  F1         7.7590   28.6750    9.2160 F     203  INH203     -0.2055
     35  C26        7.6210   26.5830    8.1840 C.ar  203  INH203     -0.0247
     36  C27        8.2590   25.4210    7.7480 C.ar  203  INH203     -0.0342
     37  C28        9.9700   24.4190    4.6820 C.3   203  INH203     -0.0279
     38  C29       10.2180   23.7890    3.2920 C.3   203  INH203     -0.0450
     39  C30        9.2720   24.4560    2.2640 C.3   203  INH203     -0.0626
     40  C31        9.8730   22.2850    3.3280 C.3   203  INH203     -0.0626
     41  H1        15.5430   18.1330    0.2620 H     203  INH203      0.0279
     42  H2        15.6550   19.7680    0.9970 H     203  INH203      0.0279
     43  H3        14.4860   18.5690    1.6470 H     203  INH203      0.0279
     44  H4        17.3700   16.8010    0.7530 H     203  INH203      0.0621
     45  H5        18.9560   15.8100    2.3810 H     203  INH203      0.0618
     46  H6        19.1970   16.8300    4.6320 H     203  INH203      0.0621
     47  H7        17.0380   19.6950    5.8290 H     203  INH203      0.0279
     48  H8        18.7850   19.2800    5.8410 H     203  INH203      0.0279
     49  H9        17.5790   18.1080    6.4720 H     203  INH203      0.0279
     50  H10       15.0500   18.7250    5.4020 H     203  INH203      0.0795
     51  H11       14.0960   18.7020    3.8800 H     203  INH203      0.0795
     52  H12       15.4910   21.6710    5.1830 H     203  INH203      0.1492
     53  H13       12.8990   22.2810    6.5230 H     203  INH203      0.0527
     54  H14       14.2030   24.0630    7.6870 H     203  INH203      0.0332
     55  H15       15.6410   23.6910    6.6770 H     203  INH203      0.0332
     56  H16       13.0890   21.7220    8.7070 H     203  INH203      0.0620
     57  H17       13.7500   19.8290   10.1940 H     203  INH203      0.0618
     58  H18       16.1730   19.2590   10.4320 H     203  INH203      0.0629
     59  H19       17.2030   22.3860    7.6790 H     203  INH203      0.0631
     60  H20       13.0330   23.2730    4.0860 H     203  INH203      0.0612
     61  H21       15.2630   23.9450    4.3040 H     203  INH203      0.2099
     62  H22       12.2830   25.5740    5.0440 H     203  INH203      0.0309
     63  H23       12.6960   24.9120    6.6620 H     203  INH203      0.0309
     64  H24       11.2040   22.9900    5.4190 H     203  INH203      0.0541
     65  H25       11.4300   26.0730    8.7890 H     203  INH203      0.0637
     66  H26       10.3050   28.1580    9.5880 H     203  INH203      0.0647
     67  H27        6.5620   26.7300    8.0040 H     203  INH203      0.0647
     68  H28        7.6860   24.6530    7.2420 H     203  INH203      0.0637
     69  H29        9.9990   25.5130    4.5740 H     203  INH203      0.0286
     70  H30        8.9720   24.1100    5.0270 H     203  INH203      0.0286
     71  H31       11.2680   23.9320    2.9970 H     203  INH203      0.0296
     72  H32        9.4400   24.0150    1.2710 H     203  INH203      0.0232
     73  H33        9.4760   25.5360    2.2250 H     203  INH203      0.0232
     74  H34        8.2270   24.2910    2.5660 H     203  INH203      0.0232
     75  H35       10.5280   21.7760    4.0510 H     203  INH203      0.0232
     76  H36       10.0220   21.8510    2.3290 H     203  INH203      0.0232
     77  H37        8.8230   22.1570    3.6310 H     203  INH203      0.0232
@<TRIPOS>BOND
     1     1     9    1
     2     1     7   ar
     3     1     2   ar
     4     2     4   ar
     5     2     3    1
     6     3    43    1
     7     3    42    1
     8     3    41    1
     9     4    44    1
    10     4     5   ar
    11     5    45    1
    12     5     6   ar
    13     6    46    1
    14     6     7   ar
    15     7     8    1
    16     8    49    1
    17     8    48    1
    18     8    47    1
    19     9    10    1
    20    10    51    1
    21    10    50    1
    22    10    11    1
    23    11    13   am
    24    11    12    2
    25    13    52    1
    26    13    14    1
    27    14    53    1
    28    14    23    1
    29    14    15    1
    30    15    55    1
    31    15    54    1
    32    15    16    1
    33    16    22   ar
    34    16    17   ar
    35    17    56    1
    36    17    18   ar
    37    18    57    1
    38    18    19   ar
    39    19    58    1
    40    19    21   ar
    41    20    21    1
    42    21    22   ar
    43    22    59    1
    44    23    60    1
    45    23    25    1
    46    23    24    1
    47    24    61    1
    48    25    63    1
    49    25    62    1
    50    25    26    1
    51    26    64    1
    52    26    37    1
    53    26    27    1
    54    27    30    1
    55    27    29    2
    56    27    28    2
    57    30    36   ar
    58    30    31   ar
    59    31    65    1
    60    31    32   ar
    61    32    66    1
    62    32    33   ar
    63    33    35   ar
    64    33    34    1
    65    35    67    1
    66    35    36   ar
    67    36    68    1
    68    37    70    1
    69    37    69    1
    70    37    38    1
    71    38    71    1
    72    38    40    1
    73    38    39    1
    74    39    74    1
    75    39    73    1
    76    39    72    1
    77    40    77    1
    78    40    76    1
    79    40    75    1
