@<TRIPOS>MOLECULE
/tmp/ewbell/vina_1xl5_1xl5_lig/vina/vina4.pdbqt
 42 44 0 0 0
SMALL
GASTEIGER

@<TRIPOS>ATOM
      1  C11       14.6400   20.6650    5.6050 C.3   203  INH203      0.1170
      2  N1        14.3450   20.7820    7.0200 N.am  203  INH203     -0.3520
      3  C10       15.2970   20.4900    7.9320 C.2   203  INH203      0.2420
      4  O2        15.1250   20.5790    9.1470 O.2   203  INH203     -0.2710
      5  H12       13.4380   21.0790    7.3200 H     203  INH203      0.1630
      6  C9        16.7110   20.5570    7.4390 C.3   203  INH203      0.2780
      7  O1        17.6290   20.1180    8.4360 O.3   203  INH203     -0.3410
      8  C1        17.9280   18.7610    8.2790 C.ar  203  INH203      0.0810
      9  C7        18.3990   18.2880    7.0530 C.ar  203  INH203     -0.0280
     10  C6        18.7110   16.9390    6.8930 C.ar  203  INH203      0.0090
     11  C8        18.5920   19.2590    5.8910 C.3   203  INH203      0.0510
     12  C5        18.5370   16.0480    7.9540 C.ar  203  INH203      0.0010
     13  C4        18.0130   16.5070    9.1590 C.ar  203  INH203      0.0090
     14  C2        17.7610   17.8670    9.3400 C.ar  203  INH203     -0.0280
     15  C3        17.2660   18.3640   10.6920 C.3   203  INH203      0.0510
     16  C19       14.0450   21.8840    4.8530 C.3   203  INH203      0.1420
     17  C20       13.4860   22.8530    5.9190 C.3   203  INH203      0.0540
     18  C21       11.9870   23.0990    5.7980 C.3   203  INH203      0.1160
     19  C28       11.5540   24.4040    5.1620 C.3   203  INH203      0.0240
     20  C29       10.6480   24.2360    3.9190 C.3   203  INH203     -0.0210
     21  C31       10.7920   22.8060    3.3550 C.3   203  INH203      0.0090
     22  C30        9.1720   24.4180    4.3470 C.3   203  INH203      0.0090
     23  S1        11.0150   22.4650    7.1380 S.O2  203  INH203      0.1790
     24  O5         9.8830   21.7200    6.5800 O.2   203  INH203     -0.2220
     25  O4        11.8400   21.7660    8.1140 O.2   203  INH203     -0.2220
     26  C22       10.3090   23.8450    8.0030 C.ar  203  INH203      0.0610
     27  C27        8.9140   23.9220    8.1350 C.ar  203  INH203      0.0260
     28  C26        8.3210   24.9890    8.8090 C.ar  203  INH203      0.0440
     29  C25        9.1380   25.9730    9.3750 C.ar  203  INH203      0.1160
     30  C24       10.5270   25.9140    9.2560 C.ar  203  INH203      0.0450
     31  F1         8.5560   27.0060    9.9660 F     203  INH203     -0.2060
     32  C23       11.1120   24.8340    8.5640 C.ar  203  INH203      0.1560
     33  O3        15.1170   22.5220    4.1330 O.3   203  INH203     -0.3930
     34  H21       14.7650   22.9770    3.3770 H     203  INH203      0.2100
     35  C12       14.0320   19.3440    5.0760 C.3   203  INH203      0.0660
     36  C13       14.8050   18.9780    3.8120 C.ar  203  INH203     -0.0550
     37  C18       15.9430   18.1920    3.9600 C.ar  203  INH203      0.0250
     38  C17       16.6900   17.8650    2.8390 C.ar  203  INH203     -0.0070
     39  C16       16.2850   18.2790    1.5680 C.ar  203  INH203      0.0180
     40 Br1        18.2070   16.8100    3.1210 Br    203  INH203     -0.1630
     41  C15       15.1270   19.0650    1.4160 C.ar  203  INH203      0.0020
     42  C14       14.3830   19.4000    2.5570 C.ar  203  INH203      0.0070
@<TRIPOS>BOND
     1    41    39   ar
     2    41    42   ar
     3    39    38   ar
     4    42    36   ar
     5    38    40    1
     6    38    37   ar
     7    21    20    1
     8    34    33    1
     9    36    37   ar
    10    36    35    1
    11    20    22    1
    12    20    19    1
    13    33    16    1
    14    16     1    1
    15    16    17    1
    16    35     1    1
    17    19    18    1
    18     1     2    1
    19    18    17    1
    20    18    23    1
    21    11     9    1
    22    24    23    2
    23    10     9   ar
    24    10    12   ar
    25     2     5    1
    26     2     3   am
    27     9     8   ar
    28    23    26    1
    29    23    25    2
    30     6     3    1
    31     6     7    1
    32     3     4    2
    33    12    13   ar
    34    26    27   ar
    35    26    32   ar
    36    27    28   ar
    37     8     7    1
    38     8    14   ar
    39    32    30   ar
    40    28    29   ar
    41    13    14   ar
    42    30    29   ar
    43    14    15    1
    44    29    31    1
