@<TRIPOS>MOLECULE
/tmp/ewbell/vina_1xl5_1xl5_lig/vina/vina5.pdbqt
 42 44 0 0 0
SMALL
GASTEIGER

@<TRIPOS>ATOM
      1  C11       10.6230   23.0840    6.7060 C.3   203  INH203      0.1170
      2  N1        10.9260   23.3700    8.0950 N.am  203  INH203     -0.3520
      3  C10       10.4580   24.4990    8.6660 C.2   203  INH203      0.2420
      4  O2        10.6630   24.8030    9.8410 O.2   203  INH203     -0.2710
      5  H12       11.4810   22.7320    8.6280 H     203  INH203      0.1630
      6  C9         9.2640   25.1170    8.0030 C.3   203  INH203      0.2780
      7  O1         9.4780   26.4970    7.7300 O.3   203  INH203     -0.3410
      8  C1         8.3020   27.2320    7.9100 C.ar  203  INH203      0.0810
      9  C7         8.0130   27.7900    9.1560 C.ar  203  INH203     -0.0280
     10  C6         6.8490   28.5350    9.3410 C.ar  203  INH203      0.0090
     11  C8         8.9880   27.6000   10.3150 C.3   203  INH203      0.0510
     12  C5         5.9540   28.7120    8.2830 C.ar  203  INH203      0.0010
     13  C4         6.2120   28.1080    7.0560 C.ar  203  INH203      0.0090
     14  C2         7.4070   27.4170    6.8530 C.ar  203  INH203     -0.0280
     15  C3         7.7110   26.8330    5.4790 C.3   203  INH203      0.0510
     16  C19       11.2120   21.7000    6.3260 C.3   203  INH203      0.1420
     17  C20       12.5670   21.5610    7.0550 C.3   203  INH203      0.0540
     18  C21       13.6230   20.8160    6.2490 C.3   203  INH203      0.1160
     19  C28       14.9010   20.4410    6.9730 C.3   203  INH203      0.0240
     20  C29       15.0010   20.9940    8.4140 C.3   203  INH203     -0.0210
     21  C31       15.5700   19.9090    9.3540 C.3   203  INH203      0.0090
     22  C30       15.9930   22.1820    8.4260 C.3   203  INH203      0.0090
     23  S1        13.7430   21.2960    4.5470 S.O2  203  INH203      0.1790
     24  O5        12.4220   21.1550    3.9300 O.2   203  INH203     -0.2220
     25  O4        14.3990   22.5890    4.4010 O.2   203  INH203     -0.2220
     26  C22       14.7930   20.1270    3.7200 C.ar  203  INH203      0.0610
     27  C27       14.4520   19.7050    2.4270 C.ar  203  INH203      0.0260
     28  C26       15.2510   18.7900    1.7430 C.ar  203  INH203      0.0440
     29  C25       16.4150   18.3150    2.3560 C.ar  203  INH203      0.1160
     30  C24       16.7730   18.7230    3.6410 C.ar  203  INH203      0.0450
     31  F1        17.1350   17.4060    1.7140 F     203  INH203     -0.2060
     32  C23       15.9490   19.6420    4.3240 C.ar  203  INH203      0.1560
     33  O3        10.3010   20.6900    6.7980 O.3   203  INH203     -0.3930
     34  H21       10.3020   20.6810    7.7480 H     203  INH203      0.2100
     35  C12       11.2300   24.2000    5.8220 C.3   203  INH203      0.0660
     36  C13       10.5180   24.1300    4.4740 C.ar  203  INH203     -0.0550
     37  C18        9.1380   23.9530    4.4840 C.ar  203  INH203      0.0250
     38  C17        8.4600   23.8540    3.2800 C.ar  203  INH203     -0.0070
     39  C16        9.1420   23.9730    2.0670 C.ar  203  INH203      0.0180
     40 Br1         6.6090   23.6120    3.3770 Br    203  INH203     -0.1630
     41  C15       10.5360   24.1640    2.0560 C.ar  203  INH203      0.0020
     42  C14       11.2170   24.2540    3.2780 C.ar  203  INH203      0.0070
@<TRIPOS>BOND
     1    31    29    1
     2    28    29   ar
     3    28    27   ar
     4    41    39   ar
     5    41    42   ar
     6    39    38   ar
     7    29    30   ar
     8    27    26   ar
     9    42    36   ar
    10    38    40    1
    11    38    37   ar
    12    30    32   ar
    13    26    32   ar
    14    26    23    1
    15    24    23    2
    16    25    23    2
    17    36    37   ar
    18    36    35    1
    19    23    18    1
    20    15    14    1
    21    35     1    1
    22    18    19    1
    23    18    17    1
    24    16     1    1
    25    16    33    1
    26    16    17    1
    27     1     2    1
    28    33    34    1
    29    14    13   ar
    30    14     8   ar
    31    19    20    1
    32    13    12   ar
    33     7     8    1
    34     7     6    1
    35     8     9   ar
    36     6     3    1
    37     2     5    1
    38     2     3   am
    39    12    10   ar
    40    20    22    1
    41    20    21    1
    42     3     4    2
    43     9    10   ar
    44     9    11    1
