@<TRIPOS>MOLECULE
/tmp/ewbell/vina_1xl5_1xl5_lig/vina/vina3.pdbqt
 42 44 0 0 0
SMALL
GASTEIGER

@<TRIPOS>ATOM
      1  C11       12.6700   21.2560    5.9910 C.3   203  INH203      0.1170
      2  N1        12.5920   21.5440    4.5720 N.am  203  INH203     -0.3520
      3  C10       13.6100   21.1930    3.7580 C.2   203  INH203      0.2420
      4  O2        13.6090   21.3930    2.5440 O.2   203  INH203     -0.2710
      5  H12       11.7860   22.0020    4.1970 H     203  INH203      0.1630
      6  C9        14.5030   20.1030    4.2670 C.3   203  INH203      0.2780
      7  O1        15.8550   20.3130    3.8740 O.3   203  INH203     -0.3410
      8  C1        16.5040   19.0980    3.6370 C.ar  203  INH203      0.0810
      9  C7        17.4290   18.6090    4.5610 C.ar  203  INH203     -0.0280
     10  C6        18.0710   17.3920    4.3370 C.ar  203  INH203      0.0090
     11  C8        17.7220   19.4030    5.8310 C.3   203  INH203      0.0510
     12  C5        17.8050   16.6610    3.1770 C.ar  203  INH203      0.0010
     13  C4        16.9260   17.1750    2.2270 C.ar  203  INH203      0.0090
     14  C2        16.2370   18.3610    2.4800 C.ar  203  INH203     -0.0280
     15  C3        15.2170   18.8660    1.4670 C.3   203  INH203      0.0510
     16  C19       11.2590   21.3910    6.6210 C.3   203  INH203      0.1420
     17  C20       10.4570   22.3800    5.7460 C.3   203  INH203      0.0540
     18  C21        9.9850   23.6190    6.4960 C.3   203  INH203      0.1160
     19  C28        9.6900   23.4570    7.9740 C.3   203  INH203      0.0240
     20  C29       10.6990   24.1680    8.9050 C.3   203  INH203     -0.0210
     21  C31       11.6000   25.1120    8.0800 C.3   203  INH203      0.0090
     22  C30        9.9180   25.0410    9.9160 C.3   203  INH203      0.0090
     23  S1         8.9530   24.7130    5.5580 S.O2  203  INH203      0.1790
     24  O5         9.8100   25.5590    4.7220 O.2   203  INH203     -0.2220
     25  O4         7.8850   23.9920    4.8800 O.2   203  INH203     -0.2220
     26  C22        8.1460   25.8130    6.6950 C.ar  203  INH203      0.0610
     27  C27        8.7990   26.9950    7.0760 C.ar  203  INH203      0.0260
     28  C26        8.1990   27.8860    7.9640 C.ar  203  INH203      0.0440
     29  C25        6.9210   27.5970    8.4540 C.ar  203  INH203      0.1160
     30  C24        6.2540   26.4280    8.0870 C.ar  203  INH203      0.0450
     31  F1         6.3870   28.4270    9.3380 F     203  INH203     -0.2060
     32  C23        6.8780   25.5320    7.1940 C.ar  203  INH203      0.1560
     33  O3        10.6350   20.0930    6.5830 O.3   203  INH203     -0.3930
     34  H21       11.2770   19.4390    6.3320 H     203  INH203      0.2100
     35  C12       13.6600   22.2470    6.6480 C.3   203  INH203      0.0660
     36  C13       14.0340   21.6610    8.0070 C.ar  203  INH203     -0.0550
     37  C18       15.1720   20.8630    8.0710 C.ar  203  INH203      0.0250
     38  C17       15.5280   20.2870    9.2800 C.ar  203  INH203     -0.0070
     39  C16       14.7810   20.5360   10.4340 C.ar  203  INH203      0.0180
     40 Br1        17.0650   19.2250    9.2840 Br    203  INH203     -0.1630
     41  C15       13.6360   21.3520   10.3720 C.ar  203  INH203      0.0020
     42  C14       13.2780   21.9240    9.1430 C.ar  203  INH203      0.0070
@<TRIPOS>BOND
     1    15    14    1
     2    13    14   ar
     3    13    12   ar
     4    14     8   ar
     5     4     3    2
     6    12    10   ar
     7     8     7    1
     8     8     9   ar
     9     3     6    1
    10     3     2   am
    11     7     6    1
    12     5     2    1
    13    10     9   ar
    14     9    11    1
    15     2     1    1
    16    24    23    2
    17    25    23    2
    18    23    18    1
    19    23    26    1
    20    17    18    1
    21    17    16    1
    22     1    16    1
    23     1    35    1
    24    34    33    1
    25    18    19    1
    26    33    16    1
    27    35    36    1
    28    26    27   ar
    29    26    32   ar
    30    27    28   ar
    31    32    30   ar
    32    28    29   ar
    33    19    20    1
    34    36    37   ar
    35    36    42   ar
    36    37    38   ar
    37    21    20    1
    38    30    29   ar
    39    29    31    1
    40    20    22    1
    41    42    41   ar
    42    38    40    1
    43    38    39   ar
    44    41    39   ar
