@<TRIPOS>MOLECULE
/tmp/ewbell/vina_1xl5_1xl5_lig/vina/vina2.pdbqt
 42 44 0 0 0
SMALL
GASTEIGER

@<TRIPOS>ATOM
      1  C11       12.2990   21.6390    6.2310 C.3   203  INH203      0.1170
      2  N1        12.1260   22.0050    4.8390 N.am  203  INH203     -0.3520
      3  C10       13.0410   21.6200    3.9240 C.2   203  INH203      0.2420
      4  O2        12.9550   21.8820    2.7240 O.2   203  INH203     -0.2710
      5  H12       11.3320   22.5430    4.5560 H     203  INH203      0.1630
      6  C9        13.8820   20.4390    4.3030 C.3   203  INH203      0.2780
      7  O1        15.2330   20.6090    3.8860 O.3   203  INH203     -0.3410
      8  C1        15.8320   19.3760    3.6120 C.ar  203  INH203      0.0810
      9  C7        15.5880   18.7380    2.3940 C.ar  203  INH203     -0.0280
     10  C6        16.1910   17.5140    2.1080 C.ar  203  INH203      0.0090
     11  C8        14.6720   19.3960    1.3660 C.3   203  INH203      0.0510
     12  C5        17.0300   16.9090    3.0470 C.ar  203  INH203      0.0010
     13  C4        17.2280   17.5150    4.2830 C.ar  203  INH203      0.0090
     14  C2        16.6770   18.7690    4.5450 C.ar  203  INH203     -0.0280
     15  C3        16.9720   19.4560    5.8730 C.3   203  INH203      0.0510
     16  C19       10.9080   21.4200    6.8810 C.3   203  INH203      0.1420
     17  C20        9.8970   22.3020    6.1140 C.3   203  INH203      0.0540
     18  C21        9.7230   23.6930    6.7090 C.3   203  INH203      0.1160
     19  C28        8.7360   23.8330    7.8510 C.3   203  INH203      0.0240
     20  C29        9.3500   24.3900    9.1560 C.3   203  INH203     -0.0210
     21  C31       10.8710   24.5860    8.9790 C.3   203  INH203      0.0090
     22  C30        8.7360   25.7810    9.4440 C.3   203  INH203      0.0090
     23  S1         9.8390   25.0250    5.5440 S.O2  203  INH203      0.1790
     24  O5         9.3570   26.2490    6.1880 O.2   203  INH203     -0.2220
     25  O4        11.1590   25.0840    4.9310 O.2   203  INH203     -0.2220
     26  C22        8.7060   24.6940    4.2180 C.ar  203  INH203      0.0610
     27  C27        9.2140   24.4730    2.9300 C.ar  203  INH203      0.0260
     28  C26        8.3570   24.2070    1.8620 C.ar  203  INH203      0.0440
     29  C25        6.9800   24.1410    2.0980 C.ar  203  INH203      0.1160
     30  C24        6.4550   24.3580    3.3720 C.ar  203  INH203      0.0450
     31  F1         6.1770   23.9410    1.0630 F     203  INH203     -0.2060
     32  C23        7.3330   24.6330    4.4400 C.ar  203  INH203      0.1560
     33  O3        10.5610   20.0310    6.7170 O.3   203  INH203     -0.3930
     34  H21       10.6110   19.7970    5.7980 H     203  INH203      0.2100
     35  C12       13.0690   22.7710    6.9530 C.3   203  INH203      0.0660
     36  C13       13.8600   22.1150    8.0820 C.ar  203  INH203     -0.0550
     37  C18       15.2330   21.9750    7.9080 C.ar  203  INH203      0.0250
     38  C17       15.9810   21.3560    8.8960 C.ar  203  INH203     -0.0070
     39  C16       15.3770   20.9150   10.0750 C.ar  203  INH203      0.0180
     40 Br1        17.8180   21.2020    8.5860 Br    203  INH203     -0.1630
     41  C15       13.9890   21.0660   10.2570 C.ar  203  INH203      0.0020
     42  C14       13.2370   21.6850    9.2480 C.ar  203  INH203      0.0070
@<TRIPOS>BOND
     1    31    29    1
     2    11     9    1
     3    28    29   ar
     4    28    27   ar
     5    29    30   ar
     6    10     9   ar
     7    10    12   ar
     8     9     8   ar
     9     4     3    2
    10    27    26   ar
    11    12    13   ar
    12    30    32   ar
    13     8     7    1
    14     8    14   ar
    15     7     6    1
    16     3     6    1
    17     3     2   am
    18    26    32   ar
    19    26    23    1
    20    13    14   ar
    21    14    15    1
    22     5     2    1
    23     2     1    1
    24    25    23    2
    25    23    24    2
    26    23    18    1
    27    34    33    1
    28    17    18    1
    29    17    16    1
    30     1    16    1
    31     1    35    1
    32    18    19    1
    33    33    16    1
    34    35    36    1
    35    19    20    1
    36    37    36   ar
    37    37    38   ar
    38    36    42   ar
    39    40    38    1
    40    38    39   ar
    41    21    20    1
    42    20    22    1
    43    42    41   ar
    44    39    41   ar
