@<TRIPOS>MOLECULE
/tmp/ewbell/vina_1xl5_1xl5_lig/vina/vina1.pdbqt
 42 44 0 0 0
SMALL
GASTEIGER

@<TRIPOS>ATOM
      1  C11       14.0560   21.4510    5.8730 C.3   203  INH203      0.1170
      2  N1        13.4350   21.4780    7.1830 N.am  203  INH203     -0.3520
      3  C10       14.1550   21.1480    8.2760 C.2   203  INH203      0.2420
      4  O2        13.7000   21.1600    9.4190 O.2   203  INH203     -0.2710
      5  H12       12.4740   21.7410    7.2770 H     203  INH203      0.1630
      6  C9        15.6420   21.2660    8.1350 C.3   203  INH203      0.2780
      7  O1        16.2670   19.9870    8.1290 O.3   203  INH203     -0.3410
      8  C1        17.1560   19.8590    9.2000 C.ar  203  INH203      0.0810
      9  C7        16.7960   19.1040   10.3190 C.ar  203  INH203     -0.0280
     10  C6        17.6830   18.9620   11.3850 C.ar  203  INH203      0.0090
     11  C8        15.4350   18.4170   10.3620 C.3   203  INH203      0.0510
     12  C5        18.9300   19.5880   11.3500 C.ar  203  INH203      0.0010
     13  C4        19.2680   20.3880   10.2620 C.ar  203  INH203      0.0090
     14  C2        18.4080   20.4790    9.1670 C.ar  203  INH203     -0.0280
     15  C3        18.8290   21.2920    7.9490 C.3   203  INH203      0.0510
     16  C19       13.7990   22.8020    5.1540 C.3   203  INH203      0.1420
     17  C20       12.6940   23.5390    5.9430 C.3   203  INH203      0.0540
     18  C21       11.3040   23.3850    5.3390 C.3   203  INH203      0.1160
     19  C28       10.9590   24.2850    4.1690 C.3   203  INH203      0.0240
     20  C29       10.7930   23.5420    2.8230 C.3   203  INH203     -0.0210
     21  C31       10.7110   22.0200    3.0710 C.3   203  INH203      0.0090
     22  C30        9.4580   23.9770    2.1730 C.3   203  INH203      0.0090
     23  S1        10.0210   23.0080    6.5030 S.O2  203  INH203      0.1790
     24  O5         8.7470   22.9350    5.7830 O.2   203  INH203     -0.2220
     25  O4        10.3710   21.8630    7.3330 O.2   203  INH203     -0.2220
     26  C22        9.8710   24.3830    7.6170 C.ar  203  INH203      0.0610
     27  C27       10.3320   24.2430    8.9340 C.ar  203  INH203      0.0260
     28  C26       10.2340   25.2990    9.8400 C.ar  203  INH203      0.0440
     29  C25        9.6900   26.5130    9.4090 C.ar  203  INH203      0.1160
     30  C24        9.2250   26.6730    8.1030 C.ar  203  INH203      0.0450
     31  F1         9.5550   27.4890   10.2950 F     203  INH203     -0.2060
     32  C23        9.3230   25.5930    7.2010 C.ar  203  INH203      0.1560
     33  O3        15.0210   23.5640    5.2030 O.3   203  INH203     -0.3930
     34  H21       15.3460   23.6980    4.3210 H     203  INH203      0.2100
     35  C12       13.4590   20.2760    5.0620 C.3   203  INH203      0.0660
     36  C13       14.6090   19.6590    4.2710 C.ar  203  INH203     -0.0550
     37  C18       15.7720   19.3440    4.9670 C.ar  203  INH203      0.0250
     38  C17       16.8500   18.8110    4.2780 C.ar  203  INH203     -0.0070
     39  C16       16.7610   18.5480    2.9090 C.ar  203  INH203      0.0180
     40 Br1        18.3770   18.4210    5.2820 Br    203  INH203     -0.1630
     41  C15       15.5800   18.8560    2.2060 C.ar  203  INH203      0.0020
     42  C14       14.4970   19.4040    2.9090 C.ar  203  INH203      0.0070
@<TRIPOS>BOND
     1    22    20    1
     2    41    42   ar
     3    41    39   ar
     4    20    21    1
     5    20    19    1
     6    42    36   ar
     7    39    38   ar
     8    19    18    1
     9    36    37   ar
    10    36    35    1
    11    38    37   ar
    12    38    40    1
    13    34    33    1
    14    35     1    1
    15    16    33    1
    16    16     1    1
    17    16    17    1
    18    18    17    1
    19    18    23    1
    20    24    23    2
    21     1     2    1
    22    23    25    2
    23    23    26    1
    24     2     5    1
    25     2     3   am
    26    32    26   ar
    27    32    30   ar
    28    26    27   ar
    29    15    14    1
    30    30    29   ar
    31     7     6    1
    32     7     8    1
    33     6     3    1
    34     3     4    2
    35    27    28   ar
    36    14     8   ar
    37    14    13   ar
    38     8     9   ar
    39    29    28   ar
    40    29    31    1
    41    13    12   ar
    42     9    11    1
    43     9    10   ar
    44    12    10   ar
