@<TRIPOS>MOLECULE
./ligand/1e2k_lig.pdb
 34 36 0 0 0
SMALL
GASTEIGER

@<TRIPOS>ATOM
      1  O1        50.3650   35.7730    1.2290 O.3   641  INH641     -0.3944
      2  O2        50.7440   34.6090   -2.0410 O.3   641  INH641     -0.3911
      3  O3        45.4850   31.6870   -1.2610 O.2   641  INH641     -0.2465
      4  O4        43.1910   34.5170    1.4590 O.2   641  INH641     -0.2674
      5  N1        46.6500   33.2970   -0.0480 N.ar  641  INH641     -0.2968
      6  N2        44.3790   33.1100    0.1630 N.ar  641  INH641     -0.2747
      7  C1        50.1450   33.6030    0.1970 C.3   641  INH641      0.0249
      8  C2        49.7430   34.2920   -1.1100 C.3   641  INH641      0.0652
      9  C3        48.4730   33.6530   -1.6110 C.3   641  INH641     -0.0049
     10  C4        47.9650   32.7100   -0.5190 C.3   641  INH641      0.0446
     11  C5        49.0050   32.6710    0.6400 C.3   641  INH641     -0.0092
     12  C6        50.3270   32.1180    0.1530 C.3   641  INH641     -0.0372
     13  C7        50.8100   34.3980    1.2750 C.3   641  INH641      0.0525
     14  C8        45.5520   32.6120   -0.4750 C.ar  641  INH641      0.3296
     15  C9        44.3590   34.1810    1.0470 C.ar  641  INH641      0.2568
     16  C10       45.5420   34.8400    1.4210 C.ar  641  INH641      0.0302
     17  C11       46.6870   34.3520    0.8440 C.ar  641  INH641      0.0177
     18  C12       45.6000   35.9960    2.3980 C.3   641  INH641     -0.0332
     19  H1        50.7940   36.2680    1.9180 H     641  INH641      0.2094
     20  H2        50.3520   35.0290   -2.7970 H     641  INH641      0.2098
     21  H3        43.5110   32.6570   -0.0400 H     641  INH641      0.1734
     22  H4        49.4190   35.2920   -0.7850 H     641  INH641      0.0600
     23  H5        47.7200   34.4280   -1.8170 H     641  INH641      0.0310
     24  H6        48.6770   33.0860   -2.5310 H     641  INH641      0.0310
     25  H7        47.8120   31.6960   -0.9170 H     641  INH641      0.0533
     26  H8        48.6060   32.5530    1.6580 H     641  INH641      0.0328
     27  H9        51.0100   31.6300    0.8640 H     641  INH641      0.0276
     28  H10       50.3790   31.6030   -0.8170 H     641  INH641      0.0276
     29  H11       50.5550   33.9660    2.2540 H     641  INH641      0.0563
     30  H12       51.9000   34.3640    1.1320 H     641  INH641      0.0563
     31  H13       47.6450   34.8050    1.0940 H     641  INH641      0.0815
     32  H14       46.6430   36.3260    2.5140 H     641  INH641      0.0280
     33  H15       45.2080   35.6720    3.3730 H     641  INH641      0.0280
     34  H16       44.9920   36.8290    2.0160 H     641  INH641      0.0280
@<TRIPOS>BOND
     1     1    13    1
     2     1    19    1
     3     2    20    1
     4     2     8    1
     5     3    14    2
     6     4    15    2
     7     5    10    1
     8     5    17   ar
     9     5    14   ar
    10     6    14   ar
    11     6    21    1
    12     6    15   ar
    13     7     8    1
    14     7    13    1
    15     7    12    1
    16     7    11    1
    17     8    22    1
    18     8     9    1
    19     9    10    1
    20     9    24    1
    21     9    23    1
    22    10    11    1
    23    10    25    1
    24    11    26    1
    25    11    12    1
    26    12    28    1
    27    12    27    1
    28    13    30    1
    29    13    29    1
    30    15    16   ar
    31    16    18    1
    32    16    17   ar
    33    17    31    1
    34    18    34    1
    35    18    33    1
    36    18    32    1
