@<TRIPOS>MOLECULE
/tmp/ewbell/vina_1e2k_1e2k_lig/vina/vina5.pdbqt
 21 23 0 0 0
SMALL
GASTEIGER

@<TRIPOS>ATOM
      1  C1        48.1410   32.1590   -1.2670 C.3   641  INH641      0.0130
      2  C2        49.1510   32.1940   -0.1170 C.3   641  INH641      0.1310
      3  C3        49.1610   33.5860    0.4620 C.3   641  INH641      0.0580
      4  C4        48.0130   34.3650   -0.1820 C.3   641  INH641      0.1010
      5  C5        47.3470   33.4760   -1.2740 C.3   641  INH641      0.0230
      6  C6        48.3360   33.1490   -2.3720 C.3   641  INH641      0.0220
      7  N1        47.0390   34.6660    0.9400 N.ar  641  INH641     -0.3040
      8  C11       45.7260   34.2610    0.7920 C.ar  641  INH641      0.1080
      9  C10       44.7620   34.6210    1.6990 C.ar  641  INH641      0.0220
     10  C9        45.2100   35.4300    2.7570 C.ar  641  INH641      0.2560
     11  C12       43.3260   34.1700    1.5210 C.3   641  INH641      0.0560
     12  O4        44.4600   35.8370    3.7140 O.2   641  INH641     -0.2670
     13  N2        46.5380   35.8270    2.8470 N.ar  641  INH641     -0.2750
     14  C8        47.5620   35.4350    1.9370 C.ar  641  INH641      0.3290
     15  H3        46.7930   36.4310    3.6010 H     641  INH641      0.1730
     16  O3        48.7100   35.8010    2.0980 O.2   641  INH641     -0.2460
     17  O2        50.3760   31.5280   -0.2740 O.3   641  INH641     -0.3950
     18  H2        50.3250   30.9440   -1.0210 H     641  INH641      0.2100
     19  C7        47.3590   30.9100   -1.5220 C.3   641  INH641      0.1760
     20  O1        47.6120   29.9390   -0.4810 O.3   641  INH641     -0.4000
     21  H1        47.7590   30.3900    0.3430 H     641  INH641      0.2090
@<TRIPOS>BOND
     1     6     5    1
     2     6     1    1
     3    19     1    1
     4    19    20    1
     5     5     1    1
     6     5     4    1
     7     1     2    1
     8    18    17    1
     9    20    21    1
    10    17     2    1
    11     4     3    1
    12     4     7    1
    13     2     3    1
    14     8     7   ar
    15     8     9   ar
    16     7    14   ar
    17    11     9    1
    18     9    10   ar
    19    14    16    2
    20    14    13   ar
    21    10    13   ar
    22    10    12    2
    23    13    15    1
