@<TRIPOS>MOLECULE
/tmp/ewbell/vina_1e2k_1e2k_lig/vina/vina1.pdbqt
 21 23 0 0 0
SMALL
GASTEIGER

@<TRIPOS>ATOM
      1  C1        50.2430   32.8450    0.0110 C.3   641  INH641      0.0130
      2  C2        50.0240   34.1450   -0.7690 C.3   641  INH641      0.1310
      3  C3        48.7480   34.0130   -1.5610 C.3   641  INH641      0.0580
      4  C4        48.0590   32.7200   -1.1200 C.3   641  INH641      0.1010
      5  C5        48.9850   31.9700   -0.1170 C.3   641  INH641      0.0230
      6  C6        50.2860   31.5770   -0.7820 C.3   641  INH641      0.0220
      7  N1        46.7700   33.1500   -0.4500 N.ar  641  INH641     -0.3040
      8  C11       46.8010   34.2530    0.3820 C.ar  641  INH641      0.1080
      9  C10       45.7090   34.6140    1.1300 C.ar  641  INH641      0.0220
     10  C9        44.5890   33.7780    0.9920 C.ar  641  INH641      0.2560
     11  C12       45.7610   35.8260    2.0380 C.3   641  INH641      0.0560
     12  O4        43.4700   33.9760    1.5870 O.2   641  INH641     -0.2670
     13  N2        44.6170   32.6680    0.1590 N.ar  641  INH641     -0.2750
     14  C8        45.7280   32.2950   -0.6540 C.ar  641  INH641      0.3290
     15  H3        43.8030   32.0880    0.1270 H     641  INH641      0.1730
     16  O3        45.6660   31.3240   -1.3810 O.2   641  INH641     -0.2460
     17  O2        51.1290   34.7590   -1.3800 O.3   641  INH641     -0.3950
     18  H2        51.2450   35.6310   -1.0210 H     641  INH641      0.2100
     19  C7        50.8840   32.8960    1.3610 C.3   641  INH641      0.1760
     20  O1        51.3690   34.2300    1.6350 O.3   641  INH641     -0.4000
     21  H1        52.2360   34.1780    2.0230 H     641  INH641      0.2090
@<TRIPOS>BOND
     1     3     4    1
     2     3     2    1
     3    16    14    2
     4    17    18    1
     5    17     2    1
     6     4     7    1
     7     4     5    1
     8     6     5    1
     9     6     1    1
    10     2     1    1
    11    14     7   ar
    12    14    13   ar
    13     7     8   ar
    14     5     1    1
    15     1    19    1
    16    15    13    1
    17    13    10   ar
    18     8     9   ar
    19    10     9   ar
    20    10    12    2
    21     9    11    1
    22    19    20    1
    23    20    21    1
