@<TRIPOS>MOLECULE
/tmp/ewbell/vina_1e2k_1e2k_lig/vina/vina2.pdbqt
 21 23 0 0 0
SMALL
GASTEIGER

@<TRIPOS>ATOM
      1  C1        50.1460   33.2390   -0.2770 C.3   641  INH641      0.0130
      2  C2        50.2250   33.9570    1.0730 C.3   641  INH641      0.1310
      3  C3        49.2460   35.1040    1.0570 C.3   641  INH641      0.0580
      4  C4        48.4070   34.9810   -0.2160 C.3   641  INH641      0.1010
      5  C5        48.9550   33.8000   -1.0710 C.3   641  INH641      0.0230
      6  C6        50.3810   34.0680   -1.5010 C.3   641  INH641      0.0220
      7  N1        46.9920   34.7040    0.2490 N.ar  641  INH641     -0.3040
      8  C11       46.4450   35.5340    1.2090 C.ar  641  INH641      0.1080
      9  C10       45.2270   35.2620    1.7780 C.ar  641  INH641      0.0220
     10  C9        44.6060   34.0860    1.3240 C.ar  641  INH641      0.2560
     11  C12       44.6420   36.1820    2.8300 C.3   641  INH641      0.0560
     12  O4        43.4530   33.6870    1.7180 O.2   641  INH641     -0.2670
     13  N2        45.2100   33.2740    0.3730 N.ar  641  INH641     -0.2750
     14  C8        46.4570   33.5580   -0.2570 C.ar  641  INH641      0.3290
     15  H3        44.7390   32.4320    0.1130 H     641  INH641      0.1730
     16  O3        46.9080   32.8110   -1.1040 O.2   641  INH641     -0.2460
     17  O2        51.4850   34.1620    1.6560 O.3   641  INH641     -0.3950
     18  H2        51.5560   33.6400    2.4460 H     641  INH641      0.2100
     19  C7        50.3460   31.7580   -0.3370 C.3   641  INH641      0.1760
     20  O1        51.0970   31.4020   -1.5200 O.3   641  INH641     -0.4000
     21  H1        51.2240   30.4600   -1.5430 H     641  INH641      0.2090
@<TRIPOS>BOND
     1    21    20    1
     2    20    19    1
     3     6     5    1
     4     6     1    1
     5    16    14    2
     6     5     1    1
     7     5     4    1
     8    19     1    1
     9     1     2    1
    10    14     7   ar
    11    14    13   ar
    12     4     7    1
    13     4     3    1
    14    15    13    1
    15     7     8   ar
    16    13    10   ar
    17     3     2    1
    18     2    17    1
    19     8     9   ar
    20    10    12    2
    21    10     9   ar
    22    17    18    1
    23     9    11    1
