@<TRIPOS>MOLECULE
/tmp/ewbell/vina_1e2k_1e2k_lig/vina/vina4.pdbqt
 21 23 0 0 0
SMALL
GASTEIGER

@<TRIPOS>ATOM
      1  C1        59.3100   37.0280    3.2170 C.3   641  INH641      0.0130
      2  C2        57.9490   36.6240    2.6440 C.3   641  INH641      0.1310
      3  C3        57.4330   35.4470    3.4310 C.3   641  INH641      0.0580
      4  C4        58.3670   35.2420    4.6250 C.3   641  INH641      0.1010
      5  C5        59.5580   36.2400    4.5140 C.3   641  INH641      0.0230
      6  C6        60.3670   35.9690    3.2640 C.3   641  INH641      0.0220
      7  N1        57.5300   35.5300    5.8550 N.ar  641  INH641     -0.3040
      8  C11       57.8620   36.6270    6.6280 C.ar  641  INH641      0.1080
      9  C10       57.2410   36.8680    7.8280 C.ar  641  INH641      0.0220
     10  C9        56.2740   35.9200    8.2000 C.ar  641  INH641      0.2560
     11  C12       57.6170   38.0750    8.6640 C.3   641  INH641      0.0560
     12  O4        55.5710   35.9960    9.2700 O.2   641  INH641     -0.2670
     13  N2        55.9950   34.8220    7.3970 N.ar  641  INH641     -0.2750
     14  C8        56.6010   34.5720    6.1310 C.ar  641  INH641      0.3290
     15  H3        55.3230   34.1610    7.7290 H     641  INH641      0.1730
     16  O3        56.2830   33.6030    5.4710 O.2   641  INH641     -0.2460
     17  O2        57.7760   36.6240    1.2510 O.3   641  INH641     -0.3950
     18  H2        58.4800   37.1160    0.8450 H     641  INH641      0.2100
     19  C7        59.7070   38.4690    3.2290 C.3   641  INH641      0.1760
     20  O1        59.3560   39.0960    1.9740 O.3   641  INH641     -0.4000
     21  H1        59.5160   38.4870    1.2610 H     641  INH641      0.2090
@<TRIPOS>BOND
     1    18    17    1
     2    17     2    1
     3    21    20    1
     4    20    19    1
     5     2     1    1
     6     2     3    1
     7     1    19    1
     8     1     6    1
     9     1     5    1
    10     6     5    1
    11     3     4    1
    12     5     4    1
    13     4     7    1
    14    16    14    2
    15     7    14   ar
    16     7     8   ar
    17    14    13   ar
    18     8     9   ar
    19    13    15    1
    20    13    10   ar
    21     9    10   ar
    22     9    11    1
    23    10    12    2
