@<TRIPOS>MOLECULE
/tmp/ewbell/vina_1e2k_1e2k_lig/vina/vina3.pdbqt
 21 23 0 0 0
SMALL
GASTEIGER

@<TRIPOS>ATOM
      1  C1        50.3070   33.3120   -0.1900 C.3   641  INH641      0.0130
      2  C2        50.4070   33.6940    1.2900 C.3   641  INH641      0.1310
      3  C3        49.3890   34.7690    1.5710 C.3   641  INH641      0.0580
      4  C4        48.5120   34.9160    0.3270 C.3   641  INH641      0.1010
      5  C5        49.0700   33.9940   -0.7980 C.3   641  INH641      0.0230
      6  C6        50.4710   34.4150   -1.1880 C.3   641  INH641      0.0220
      7  N1        47.1240   34.4770    0.7480 N.ar  641  INH641     -0.3040
      8  C11       46.4760   33.5290   -0.0200 C.ar  641  INH641      0.1080
      9  C10       45.1690   33.1890    0.2180 C.ar  641  INH641      0.0220
     10  C9        44.5550   33.8820    1.2750 C.ar  641  INH641      0.2560
     11  C12       44.4730   32.1470   -0.6350 C.3   641  INH641      0.0560
     12  O4        43.3500   33.6750    1.6620 O.2   641  INH641     -0.2670
     13  N2        45.2450   34.8430    2.0020 N.ar  641  INH641     -0.2750
     14  C8        46.6130   35.1850    1.7950 C.ar  641  INH641      0.3290
     15  H3        44.7480   35.3300    2.7200 H     641  INH641      0.1730
     16  O3        47.1570   36.0190    2.4930 O.2   641  INH641     -0.2460
     17  O2        51.6790   33.8080    1.8720 O.3   641  INH641     -0.3950
     18  H2        51.5880   33.9340    2.8090 H     641  INH641      0.2100
     19  C7        50.5560   31.8960   -0.6040 C.3   641  INH641      0.1760
     20  O1        50.7540   31.8220   -2.0350 O.3   641  INH641     -0.4000
     21  H1        51.2270   32.5920   -2.3290 H     641  INH641      0.2090
@<TRIPOS>BOND
     1    21    20    1
     2    20    19    1
     3     6     5    1
     4     6     1    1
     5     5     1    1
     6     5     4    1
     7    11     9    1
     8    19     1    1
     9     1     2    1
    10     8     9   ar
    11     8     7   ar
    12     9    10   ar
    13     4     7    1
    14     4     3    1
    15     7    14   ar
    16    10    12    2
    17    10    13   ar
    18     2     3    1
    19     2    17    1
    20    14    13   ar
    21    14    16    2
    22    17    18    1
    23    13    15    1
