@<TRIPOS>MOLECULE
./ligand/1enu_lig.pdb
 20 21 0 0 0
SMALL
GASTEIGER

@<TRIPOS>ATOM
      1  N1        15.8570   17.0170   23.9000 N.ar  376  INH376     -0.2628
      2  C1        15.4180   16.8080   22.6540 C.ar  376  INH376      0.2710
      3  O1        14.2550   16.4500   22.4630 O.2   376  INH376     -0.2658
      4  C2        16.3270   16.9930   21.5170 C.ar  376  INH376      0.0531
      5  C3        15.9130   16.7940   20.1850 C.ar  376  INH376     -0.0469
      6  C4        16.8180   16.9950   19.1330 C.ar  376  INH376     -0.0403
      7  C5        18.1390   17.4020   19.4080 C.ar  376  INH376      0.0253
      8  C6        18.5520   17.6070   20.7330 C.ar  376  INH376     -0.0279
      9  C7        17.6490   17.4110   21.7900 C.ar  376  INH376      0.0547
     10  C8        18.0560   17.6170   23.1860 C.ar  376  INH376      0.2710
     11  O2        19.2020   17.9730   23.4500 O.2   376  INH376     -0.2658
     12  N2        17.1670   17.4200   24.1640 N.ar  376  INH376     -0.2628
     13  N3        19.0140   17.5980   18.3900 N.pl3 376  INH376     -0.3579
     14  H1        15.2280   16.8810   24.6650 H     376  INH376      0.1900
     15  H2        14.8960   16.4860   19.9740 H     376  INH376      0.0626
     16  H3        16.5020   16.8370   18.1080 H     376  INH376      0.0636
     17  H4        19.5700   17.9170   20.9410 H     376  INH376      0.0644
     18  H5        17.4480   17.5660   25.1120 H     376  INH376      0.1900
     19  H6        18.7130   17.4480   17.4160 H     376  INH376      0.1423
     20  H7        19.9790   17.8970   18.5910 H     376  INH376      0.1423
@<TRIPOS>BOND
     1     1    14    1
     2     1    12   ar
     3     1     2   ar
     4     2     4   ar
     5     2     3    2
     6     4     9   ar
     7     4     5   ar
     8     5    15    1
     9     5     6   ar
    10     6    16    1
    11     6     7   ar
    12     7    13    1
    13     7     8   ar
    14     8    17    1
    15     8     9   ar
    16     9    10   ar
    17    10    12   ar
    18    10    11    2
    19    12    18    1
    20    13    20    1
    21    13    19    1
