@<TRIPOS>MOLECULE
/tmp/ewbell/vina_1enu_1enu_lig/vina/vina3.pdbqt
 17 18 0 0 0
SMALL
GASTEIGER

@<TRIPOS>ATOM
      1  N1        18.9000   17.1460   19.1050 N.ar  376  INH376     -0.2630
      2  C1        19.1680   17.2050   20.4140 C.ar  376  INH376      0.2710
      3  O1        20.3340   17.2960   20.8000 O.2   376  INH376     -0.2660
      4  C2        18.0730   17.1480   21.3880 C.ar  376  INH376      0.0490
      5  C3        18.3000   17.2140   22.7770 C.ar  376  INH376      0.0200
      6  C4        17.2170   17.1660   23.6670 C.ar  376  INH376      0.0300
      7  C5        15.9020   17.0580   23.1710 C.ar  376  INH376      0.0260
      8  C6        15.6730   16.9980   21.7880 C.ar  376  INH376      0.0470
      9  C7        16.7530   17.0500   20.8930 C.ar  376  INH376      0.0510
     10  C8        16.5410   16.9870   19.4410 C.ar  376  INH376      0.2710
     11  O2        15.4030   16.8940   18.9860 O.2   376  INH376     -0.2660
     12  N2        17.5950   17.0390   18.6220 N.ar  376  INH376     -0.2630
     13  H1        19.6570   17.1800   18.4530 H     376  INH376      0.1900
     14  H5        17.4450   17.0000   17.6340 H     376  INH376      0.1900
     15  N3        14.8540   17.0140   24.0320 N.pl3 376  INH376     -0.3990
     16  H7        14.3180   16.1410   24.1460 H     376  INH376      0.1560
     17  H6        14.5940   17.8520   24.5710 H     376  INH376      0.1560
@<TRIPOS>BOND
     1    14    12    1
     2    13     1    1
     3    12     1   ar
     4    12    10   ar
     5    11    10    2
     6     1     2   ar
     7    10     9   ar
     8     2     3    2
     9     2     4   ar
    10     9     4   ar
    11     9     8   ar
    12     4     5   ar
    13     8     7   ar
    14     5     6   ar
    15     7     6   ar
    16     7    15    1
    17    15    16    1
    18    15    17    1
