@<TRIPOS>MOLECULE
/tmp/ewbell/vina_1enu_1enu_lig/vina/vina5.pdbqt
 17 18 0 0 0
SMALL
GASTEIGER

@<TRIPOS>ATOM
      1  N1        18.1310   17.2260   18.0600 N.ar  376  INH376     -0.2630
      2  C1        16.9050   16.9950   18.5420 C.ar  376  INH376      0.2710
      3  O1        15.9720   16.7680   17.7700 O.2   376  INH376     -0.2660
      4  C2        16.6700   17.0270   19.9910 C.ar  376  INH376      0.0490
      5  C3        15.4000   16.7830   20.5500 C.ar  376  INH376      0.0200
      6  C4        15.2300   16.8140   21.9420 C.ar  376  INH376      0.0300
      7  C5        16.3310   17.0830   22.7800 C.ar  376  INH376      0.0260
      8  C6        17.5980   17.3200   22.2250 C.ar  376  INH376      0.0470
      9  C7        17.7740   17.2860   20.8330 C.ar  376  INH376      0.0510
     10  C8        19.0890   17.5320   20.2270 C.ar  376  INH376      0.2710
     11  O2        20.0630   17.7680   20.9370 O.2   376  INH376     -0.2660
     12  N2        19.2160   17.4920   18.8970 N.ar  376  INH376     -0.2630
     13  H1        18.2740   17.2070   17.0710 H     376  INH376      0.1900
     14  H5        20.1140   17.6560   18.4900 H     376  INH376      0.1900
     15  N3        16.1670   17.1110   24.1260 N.pl3 376  INH376     -0.3990
     16  H7        15.9040   17.9900   24.5940 H     376  INH376      0.1560
     17  H6        16.3060   16.2530   24.6800 H     376  INH376      0.1560
@<TRIPOS>BOND
     1    13     1    1
     2     3     2    2
     3     1     2   ar
     4     1    12   ar
     5    14    12    1
     6     2     4   ar
     7    12    10   ar
     8     4     5   ar
     9     4     9   ar
    10    10     9   ar
    11    10    11    2
    12     5     6   ar
    13     9     8   ar
    14     6     7   ar
    15     8     7   ar
    16     7    15    1
    17    15    16    1
    18    15    17    1
