@<TRIPOS>MOLECULE
/tmp/ewbell/vina_1enu_1enu_lig/vina/vina2.pdbqt
 17 18 0 0 0
SMALL
GASTEIGER

@<TRIPOS>ATOM
      1  N1        16.8640   17.2430   24.2220 N.ar  376  INH376     -0.2630
      2  C1        17.7130   17.4860   23.2180 C.ar  376  INH376      0.2710
      3  O1        18.8690   17.8380   23.4600 O.2   376  INH376     -0.2660
      4  C2        17.2640   17.3440   21.8280 C.ar  376  INH376      0.0490
      5  C3        18.1200   17.5790   20.7340 C.ar  376  INH376      0.0200
      6  C4        17.6440   17.4190   19.4250 C.ar  376  INH376      0.0300
      7  C5        16.3110   17.0170   19.2040 C.ar  376  INH376      0.0260
      8  C6        15.4580   16.7760   20.2920 C.ar  376  INH376      0.0470
      9  C7        15.9310   16.9310   21.6050 C.ar  376  INH376      0.0510
     10  C8        15.0580   16.6870   22.7610 C.ar  376  INH376      0.2710
     11  O2        13.8930   16.3340   22.5930 O.2   376  INH376     -0.2660
     12  N2        15.5450   16.8450   23.9950 N.ar  376  INH376     -0.2630
     13  H1        17.1830   17.3500   25.1630 H     376  INH376      0.1900
     14  H5        14.9490   16.6730   24.7780 H     376  INH376      0.1900
     15  N3        15.8520   16.8600   17.9380 N.pl3 376  INH376     -0.3990
     16  H7        14.8490   16.9850   17.7350 H     376  INH376      0.1560
     17  H6        16.5050   16.6170   17.1790 H     376  INH376      0.1560
@<TRIPOS>BOND
     1    17    15    1
     2    16    15    1
     3    15     7    1
     4     7     6   ar
     5     7     8   ar
     6     6     5   ar
     7     8     9   ar
     8     5     4   ar
     9     9     4   ar
    10     9    10   ar
    11     4     2   ar
    12    11    10    2
    13    10    12   ar
    14     2     3    2
    15     2     1   ar
    16    12     1   ar
    17    12    14    1
    18     1    13    1
