@<TRIPOS>MOLECULE
/tmp/ewbell/vina_1enu_1enu_lig/vina/vina4.pdbqt
 17 18 0 0 0
SMALL
GASTEIGER

@<TRIPOS>ATOM
      1  N1        16.0890   17.0960   24.0720 N.ar  376  INH376     -0.2630
      2  C1        16.4970   17.1450   22.7990 C.ar  376  INH376      0.2710
      3  O1        17.6570   17.4630   22.5360 O.2   376  INH376     -0.2660
      4  C2        15.5560   16.8320   21.7170 C.ar  376  INH376      0.0490
      5  C3        15.9370   16.8610   20.3600 C.ar  376  INH376      0.0200
      6  C4        15.0030   16.5440   19.3640 C.ar  376  INH376      0.0300
      7  C5        13.6860   16.1890   19.7200 C.ar  376  INH376      0.0260
      8  C6        13.3060   16.1540   21.0700 C.ar  376  INH376      0.0470
      9  C7        14.2380   16.4670   22.0720 C.ar  376  INH376      0.0510
     10  C8        13.8670   16.4390   23.4930 C.ar  376  INH376      0.2710
     11  O2        12.7250   16.1320   23.8270 O.2   376  INH376     -0.2660
     12  N2        14.7830   16.7440   24.4160 N.ar  376  INH376     -0.2630
     13  H1        16.7390   17.3170   24.7980 H     376  INH376      0.1900
     14  H5        14.5260   16.7190   25.3820 H     376  INH376      0.1900
     15  N3        12.7820   15.8800   18.7560 N.pl3 376  INH376     -0.3990
     16  H7        12.5580   16.5670   18.0220 H     376  INH376      0.1560
     17  H6        12.3210   14.9590   18.7590 H     376  INH376      0.1560
@<TRIPOS>BOND
     1    16    15    1
     2    15    17    1
     3    15     7    1
     4     6     7   ar
     5     6     5   ar
     6     7     8   ar
     7     5     4   ar
     8     8     9   ar
     9     4     9   ar
    10     4     2   ar
    11     9    10   ar
    12     3     2    2
    13     2     1   ar
    14    10    11    2
    15    10    12   ar
    16     1    12   ar
    17     1    13    1
    18    12    14    1
