@<TRIPOS>MOLECULE
/tmp/ewbell/vina_1enu_1enu_lig/vina/vina1.pdbqt
 17 18 0 0 0
SMALL
GASTEIGER

@<TRIPOS>ATOM
      1  N1        15.5700   16.9620   23.8940 N.ar  376  INH376     -0.2630
      2  C1        15.1720   16.7680   22.6320 C.ar  376  INH376      0.2710
      3  O1        14.0070   16.4470   22.3960 O.2   376  INH376     -0.2660
      4  C2        16.1290   16.9250   21.5310 C.ar  376  INH376      0.0490
      5  C3        15.7610   16.7410   20.1840 C.ar  376  INH376      0.0200
      6  C4        16.7110   16.9140   19.1670 C.ar  376  INH376      0.0300
      7  C5        18.0330   17.2780   19.4940 C.ar  376  INH376      0.0260
      8  C6        18.4010   17.4690   20.8340 C.ar  376  INH376      0.0470
      9  C7        17.4530   17.3010   21.8550 C.ar  376  INH376      0.0510
     10  C8        17.8120   17.4920   23.2660 C.ar  376  INH376      0.2710
     11  O2        18.9580   17.8110   23.5740 O.2   376  INH376     -0.2660
     12  N2        16.8810   17.3230   24.2090 N.ar  376  INH376     -0.2630
     13  H1        14.9080   16.8450   24.6340 H     376  INH376      0.1900
     14  H5        17.1300   17.4590   25.1670 H     376  INH376      0.1900
     15  N3        18.9520   17.4470   18.5100 N.pl3 376  INH376     -0.3990
     16  H7        18.9920   16.7840   17.7240 H     376  INH376      0.1560
     17  H6        19.6100   18.2400   18.5510 H     376  INH376      0.1560
@<TRIPOS>BOND
     1    16    15    1
     2    15    17    1
     3    15     7    1
     4     6     7   ar
     5     6     5   ar
     6     7     8   ar
     7     5     4   ar
     8     8     9   ar
     9     4     9   ar
    10     4     2   ar
    11     9    10   ar
    12     3     2    2
    13     2     1   ar
    14    10    11    2
    15    10    12   ar
    16     1    12   ar
    17     1    13    1
    18    12    14    1
