@<TRIPOS>MOLECULE
./ligand/2d3u_lig.pdb
 40 42 0 0 0
SMALL
GASTEIGER

@<TRIPOS>ATOM
      1  C1        12.9300   30.8710   73.5550 C.ar  563  INH563     -0.0438
      2  C2        12.9040   29.5940   72.9150 C.ar  563  INH563      0.0518
      3  C3        11.6750   28.8760   72.8760 C.ar  563  INH563     -0.0438
      4  C4        10.5040   29.4160   73.4550 C.ar  563  INH563     -0.0523
      5  C5        10.5200   30.6920   74.0920 C.ar  563  INH563     -0.0112
      6  C6        11.7530   31.4110   74.1340 C.ar  563  INH563     -0.0523
      7  C7         6.8840   31.7970   75.1110 C.ar  563  INH563      0.1232
      8  C8         7.7330   32.3920   76.0330 C.ar  563  INH563      0.0699
      9  C9         9.1080   32.0610   75.7680 C.ar  563  INH563     -0.0237
     10  C10        9.2770   31.2340   74.6690 C.ar  563  INH563      0.0220
     11  S1         7.7570   30.8740   73.9820 S.2   563  INH563     -0.0798
     12  C11       14.0830   29.0400   72.3180 C.1   563  INH563      0.0992
     13  N1        15.0430   28.5810   71.8110 N.1   563  INH563     -0.1909
     14  C12        5.4020   31.9440   75.1070 C.2   563  INH563      0.3949
     15  O1         4.7680   31.2300   74.3130 O.co2 563  INH563     -0.2399
     16  O2         4.8680   32.7870   75.8710 O.co2 563  INH563     -0.2399
     17  N2         7.3010   33.2370   77.1370 N.pl3 563  INH563     -0.2149
     18  S2         8.2820   34.5020   77.6890 S.O2  563  INH563      0.0726
     19  C13        7.7750   36.4670   75.7110 C.ar  563  INH563     -0.0239
     20  C14        8.7330   35.6820   76.4270 C.ar  563  INH563      0.1114
     21  C15       10.1250   35.8300   76.1460 C.ar  563  INH563     -0.0348
     22  C16       10.5780   36.7400   75.1660 C.ar  563  INH563     -0.0599
     23  C17        9.6350   37.5250   74.4500 C.ar  563  INH563     -0.0614
     24  C18        8.2460   37.3870   74.7200 C.ar  563  INH563     -0.0570
     25  C19        6.2860   36.3670   75.9520 C.3   563  INH563     -0.0378
     26  O3         9.4810   33.8970   78.2520 O.2   563  INH563     -0.1500
     27  O4         7.4830   35.1830   78.6860 O.2   563  INH563     -0.1500
     28  H1        13.8570   31.4320   73.5990 H     563  INH563      0.0631
     29  H2        11.6370   27.9040   72.3970 H     563  INH563      0.0631
     30  H3         9.5800   28.8510   73.4140 H     563  INH563      0.0624
     31  H4        11.7900   32.3820   74.6150 H     563  INH563      0.0624
     32  H5         9.9370   32.4260   76.3730 H     563  INH563      0.0648
     33  H6         6.4170   33.0690   77.5730 H     563  INH563      0.1737
     34  H7        10.8460   35.2340   76.6940 H     563  INH563      0.0637
     35  H8        11.6380   36.8390   74.9610 H     563  INH563      0.0618
     36  H9         9.9740   38.2290   73.6980 H     563  INH563      0.0618
     37  H10        7.5330   37.9870   74.1670 H     563  INH563      0.0621
     38  H11        6.0910   35.6220   76.7370 H     563  INH563      0.0278
     39  H12        5.7840   36.0600   75.0230 H     563  INH563      0.0278
     40  H13        5.9000   37.3460   76.2710 H     563  INH563      0.0278
@<TRIPOS>BOND
     1     1     2   ar
     2     1    28    1
     3     1     6   ar
     4     2     3   ar
     5     2    12    1
     6     3     4   ar
     7     3    29    1
     8     4     5   ar
     9     4    30    1
    10     5    10    1
    11     5     6   ar
    12     6    31    1
    13     7    14    1
    14     7    11   ar
    15     7     8   ar
    16     8    17    1
    17     8     9   ar
    18     9    32    1
    19     9    10   ar
    20    10    11   ar
    21    12    13    3
    22    14    16   ar
    23    14    15   ar
    24    17    33    1
    25    17    18    1
    26    18    27    2
    27    18    26    2
    28    18    20    1
    29    19    20   ar
    30    19    25    1
    31    19    24   ar
    32    20    21   ar
    33    21    22   ar
    34    21    34    1
    35    22    23   ar
    36    22    35    1
    37    23    24   ar
    38    23    36    1
    39    24    37    1
    40    25    40    1
    41    25    39    1
    42    25    38    1
