@<TRIPOS>MOLECULE
/tmp/ewbell/vina_2d3u_2d3u_lig/vina/vina1.pdbqt
 29 31 0 0 0
SMALL
GASTEIGER

@<TRIPOS>ATOM
      1  C1        12.8040   29.0790   75.1890 C.ar  563  INH563      0.0230
      2  C2        13.5410   29.6130   74.0880 C.ar  563  INH563      0.0440
      3  C3        13.0010   30.7260   73.3830 C.ar  563  INH563      0.0230
      4  C4        11.7650   31.2930   73.7660 C.ar  563  INH563      0.0140
      5  C5        11.0250   30.7690   74.8670 C.ar  563  INH563     -0.0190
      6  C6        11.5650   29.6510   75.5720 C.ar  563  INH563      0.0140
      7  C11       14.8000   29.0520   73.6950 C.1   563  INH563      0.0990
      8  N1        15.8420   28.6070   73.3720 N.1   563  INH563     -0.1910
      9  C10        9.7480   31.3960   75.2520 C.ar  563  INH563      0.0180
     10  C9         9.4760   32.2610   76.2990 C.ar  563  INH563      0.0510
     11  C8         8.1000   32.6760   76.3610 C.ar  563  INH563      0.0670
     12  C7         7.3540   32.1040   75.3410 C.ar  563  INH563      0.1060
     13  S1         8.3200   31.1020   74.3650 S.2   563  INH563     -0.0810
     14  N2         7.5690   33.5750   77.3760 N.pl3 563  INH563     -0.2790
     15  H6         6.7020   33.3580   77.8250 H     563  INH563      0.1790
     16  S2         8.4060   34.9840   77.8020 S.O2  563  INH563      0.2630
     17  O4         7.4760   35.7340   78.6210 O.2   563  INH563     -0.2000
     18  O3         9.5910   34.5690   78.5400 O.2   563  INH563     -0.2000
     19  C14        8.8810   36.0010   76.4130 C.ar  563  INH563      0.0850
     20  C13        7.9510   36.7930   75.6690 C.ar  563  INH563     -0.0390
     21  C19        6.4740   36.8400   75.9850 C.3   563  INH563      0.0500
     22  C18        8.4400   37.5750   74.5740 C.ar  563  INH563      0.0080
     23  C17        9.8200   37.5720   74.2300 C.ar  563  INH563      0.0010
     24  C16       10.7340   36.7810   74.9750 C.ar  563  INH563      0.0020
     25  C15       10.2640   36.0060   76.0570 C.ar  563  INH563      0.0260
     26  C12        5.8990   32.3340   75.1240 C.2   563  INH563      0.1850
     27  O2         5.3610   33.3580   75.6150 O.2   563  INH563     -0.6460
     28  O1         5.2940   31.4970   74.4350 O.3   563  INH563     -0.7720
     29  H          5.7380   30.7310   74.1290 H     563  INH563      0.1670
@<TRIPOS>BOND
     1     8     7    3
     2     3     4   ar
     3     3     2   ar
     4     7     2    1
     5     4     5   ar
     6     2     1   ar
     7    29    28    1
     8    23    22   ar
     9    23    24   ar
    10    13     9   ar
    11    13    12   ar
    12    28    26    1
    13    22    20   ar
    14     5     9    1
    15     5     6   ar
    16    24    25   ar
    17    26    12    1
    18    26    27    2
    19     1     6   ar
    20     9    10   ar
    21    12    11   ar
    22    20    21    1
    23    20    19   ar
    24    25    19   ar
    25    10    11   ar
    26    11    14    1
    27    19    16    1
    28    14    16    1
    29    14    15    1
    30    16    18    2
    31    16    17    2
