@<TRIPOS>MOLECULE
/tmp/ewbell/vina_2d3u_2d3u_lig/vina/vina5.pdbqt
 29 31 0 0 0
SMALL
GASTEIGER

@<TRIPOS>ATOM
      1  C1         3.0470   41.0260   79.2570 C.ar  563  INH563      0.0230
      2  C2         1.7490   41.0360   79.8540 C.ar  563  INH563      0.0440
      3  C3         1.2070   39.8060   80.3250 C.ar  563  INH563      0.0230
      4  C4         1.9370   38.6020   80.2080 C.ar  563  INH563      0.0140
      5  C5         3.2350   38.5850   79.6170 C.ar  563  INH563     -0.0190
      6  C6         3.7780   39.8170   79.1420 C.ar  563  INH563      0.0140
      7  C11        1.0020   42.2510   79.9860 C.1   563  INH563      0.0990
      8  N1         0.3840   43.2470   80.1120 N.1   563  INH563     -0.1910
      9  C10        3.9780   37.3150   79.5280 C.ar  563  INH563      0.0180
     10  C9         5.2870   37.0910   79.1320 C.ar  563  INH563      0.0510
     11  C8         5.6730   35.7050   79.1770 C.ar  563  INH563      0.0670
     12  C7         4.6270   34.9050   79.6140 C.ar  563  INH563      0.1060
     13  S1         3.2420   35.8330   79.9440 S.2   563  INH563     -0.0810
     14  N2         6.9920   35.2180   78.8000 N.pl3 563  INH563     -0.2790
     15  H6         7.7350   35.2330   79.4690 H     563  INH563      0.1790
     16  S2         7.2790   34.6260   77.2390 S.O2  563  INH563      0.2630
     17  O4         7.7490   33.2710   77.4370 O.2   563  INH563     -0.2000
     18  O3         6.0110   34.6790   76.5240 O.2   563  INH563     -0.2000
     19  C14        8.5250   35.5280   76.3320 C.ar  563  INH563      0.0850
     20  C13        8.2450   36.7210   75.5940 C.ar  563  INH563     -0.0390
     21  C19        6.8640   37.3280   75.5060 C.3   563  INH563      0.0500
     22  C18        9.3210   37.3680   74.9040 C.ar  563  INH563      0.0080
     23  C17       10.6420   36.8430   74.9520 C.ar  563  INH563      0.0010
     24  C16       10.9080   35.6570   75.6880 C.ar  563  INH563      0.0020
     25  C15        9.8550   35.0110   76.3710 C.ar  563  INH563      0.0260
     26  C12        4.7030   33.4260   79.7740 C.2   563  INH563      0.1850
     27  O2         4.3280   32.9060   80.8550 O.2   563  INH563     -0.6460
     28  O1         5.1150   32.7750   78.8000 O.3   563  INH563     -0.7720
     29  H          4.7640   31.9250   78.6210 H     563  INH563      0.1670
@<TRIPOS>BOND
     1    22    23   ar
     2    22    20   ar
     3    23    24   ar
     4    21    20    1
     5    20    19   ar
     6    24    25   ar
     7    19    25   ar
     8    19    16    1
     9    18    16    2
    10    16    17    2
    11    16    14    1
    12    29    28    1
    13    28    26    1
    14    14    11    1
    15    14    15    1
    16    10    11   ar
    17    10     9   ar
    18     6     1   ar
    19     6     5   ar
    20    11    12   ar
    21     1     2   ar
    22     9     5    1
    23     9    13   ar
    24    12    26    1
    25    12    13   ar
    26     5     4   ar
    27    26    27    2
    28     2     7    1
    29     2     3   ar
    30     7     8    3
    31     4     3   ar
