@<TRIPOS>MOLECULE
/tmp/ewbell/vina_2d3u_2d3u_lig/vina/vina3.pdbqt
 29 31 0 0 0
SMALL
GASTEIGER

@<TRIPOS>ATOM
      1  C1         1.5860   34.6520   83.1160 C.ar  563  INH563      0.0230
      2  C2         0.2260   34.5540   82.6900 C.ar  563  INH563      0.0440
      3  C3        -0.1390   35.1290   81.4400 C.ar  563  INH563      0.0230
      4  C4         0.8230   35.7800   80.6350 C.ar  563  INH563      0.0140
      5  C5         2.1840   35.8790   81.0510 C.ar  563  INH563     -0.0190
      6  C6         2.5500   35.3050   82.3060 C.ar  563  INH563      0.0140
      7  C11       -0.7570   33.8900   83.4940 C.1   563  INH563      0.0990
      8  N1        -1.5700   33.3340   84.1410 N.1   563  INH563     -0.1910
      9  C10        3.1650   36.5480   80.1790 C.ar  563  INH563      0.0180
     10  C9         4.4670   36.1790   79.8800 C.ar  563  INH563      0.0510
     11  C8         5.1280   37.0830   78.9760 C.ar  563  INH563      0.0670
     12  C7         4.2930   38.1290   78.6090 C.ar  563  INH563      0.1060
     13  S1         2.7730   37.9900   79.3550 S.2   563  INH563     -0.0810
     14  N2         6.5010   36.9150   78.5210 N.pl3 563  INH563     -0.2790
     15  H6         7.2360   37.4260   78.9660 H     563  INH563      0.1790
     16  S2         6.8630   35.8620   77.2450 S.O2  563  INH563      0.2630
     17  O4         7.2910   34.6370   77.8860 O.2   563  INH563     -0.2000
     18  O3         5.6390   35.6910   76.4740 O.2   563  INH563     -0.2000
     19  C14        8.1780   36.4300   76.1790 C.ar  563  INH563      0.0850
     20  C13        9.5390   36.0150   76.3260 C.ar  563  INH563     -0.0390
     21  C19        9.9940   35.0590   77.4040 C.3   563  INH563      0.0500
     22  C18       10.5140   36.5300   75.4130 C.ar  563  INH563      0.0080
     23  C17       10.1440   37.4320   74.3780 C.ar  563  INH563      0.0010
     24  C16        8.7900   37.8380   74.2420 C.ar  563  INH563      0.0020
     25  C15        7.8200   37.3370   75.1360 C.ar  563  INH563      0.0260
     26  C12        4.6750   39.2310   77.6830 C.2   563  INH563      0.1850
     27  O2         4.5530   40.4220   78.0650 O.2   563  INH563     -0.6460
     28  O1         5.1260   38.9030   76.5740 O.3   563  INH563     -0.7720
     29  H          5.8400   38.2980   76.5180 H     563  INH563      0.1670
@<TRIPOS>BOND
     1    24    23   ar
     2    24    25   ar
     3    23    22   ar
     4    25    19   ar
     5    22    20   ar
     6    19    20   ar
     7    19    16    1
     8    20    21    1
     9    18    16    2
    10    29    28    1
    11    28    26    1
    12    16    17    2
    13    16    14    1
    14    26    27    2
    15    26    12    1
    16    14    15    1
    17    14    11    1
    18    12    11   ar
    19    12    13   ar
    20    11    10   ar
    21    13     9   ar
    22    10     9   ar
    23     9     5    1
    24     4     5   ar
    25     4     3   ar
    26     5     6   ar
    27     3     2   ar
    28     6     1   ar
    29     2     1   ar
    30     2     7    1
    31     7     8    3
