@<TRIPOS>MOLECULE
/tmp/ewbell/vina_2d3u_2d3u_lig/vina/vina4.pdbqt
 29 31 0 0 0
SMALL
GASTEIGER

@<TRIPOS>ATOM
      1  C1         1.6500   38.6490   80.4430 C.ar  563  INH563      0.0230
      2  C2         2.0290   39.8840   79.8310 C.ar  563  INH563      0.0440
      3  C3         3.2100   39.9170   79.0390 C.ar  563  INH563      0.0230
      4  C4         3.9920   38.7530   78.8560 C.ar  563  INH563      0.0140
      5  C5         3.6190   37.5160   79.4590 C.ar  563  INH563     -0.0190
      6  C6         2.4350   37.4820   80.2570 C.ar  563  INH563      0.0140
      7  C11        1.2400   41.0680   80.0020 C.1   563  INH563      0.0990
      8  N1         0.5920   42.0440   80.1250 N.1   563  INH563     -0.1910
      9  C10        4.4450   36.3170   79.2330 C.ar  563  INH563      0.0180
     10  C9         5.2060   35.9710   78.1280 C.ar  563  INH563      0.0510
     11  C8         5.8900   34.7130   78.2700 C.ar  563  INH563      0.0670
     12  C7         5.6250   34.1310   79.5010 C.ar  563  INH563      0.1060
     13  S1         4.5760   35.1000   80.4230 S.2   563  INH563     -0.0810
     14  N2         6.7420   34.1330   77.2420 N.pl3 563  INH563     -0.2790
     15  H6         6.3580   33.4740   76.5940 H     563  INH563      0.1790
     16  S2         8.3760   34.5640   77.1320 S.O2  563  INH563      0.2630
     17  O4         8.7200   35.0540   78.4500 O.2   563  INH563     -0.2000
     18  O3         9.1110   33.3580   76.7750 O.2   563  INH563     -0.2000
     19  C14        8.7140   35.8540   75.9450 C.ar  563  INH563      0.0850
     20  C13       10.0370   36.2220   75.5450 C.ar  563  INH563     -0.0390
     21  C19       11.2770   35.5550   76.0930 C.3   563  INH563      0.0500
     22  C18       10.1940   37.2710   74.5820 C.ar  563  INH563      0.0080
     23  C17        9.0640   37.9340   74.0290 C.ar  563  INH563      0.0010
     24  C16        7.7550   37.5610   74.4350 C.ar  563  INH563      0.0020
     25  C15        7.5880   36.5280   75.3840 C.ar  563  INH563      0.0260
     26  C12        6.1820   32.8280   79.9590 C.2   563  INH563      0.1850
     27  O2         5.3950   31.8810   80.2140 O.2   563  INH563     -0.6460
     28  O1         7.4180   32.7410   80.0370 O.3   563  INH563     -0.7720
     29  H          7.9180   33.4580   80.3760 H     563  INH563      0.1670
@<TRIPOS>BOND
     1    23    24   ar
     2    23    22   ar
     3    24    25   ar
     4    22    20   ar
     5    25    19   ar
     6    20    19   ar
     7    20    21    1
     8    19    16    1
     9    15    14    1
    10    18    16    2
    11    16    14    1
    12    16    17    2
    13    14    11    1
    14    10    11   ar
    15    10     9   ar
    16    11    12   ar
    17     4     3   ar
    18     4     5   ar
    19     3     2   ar
    20     9     5    1
    21     9    13   ar
    22     5     6   ar
    23    12    26    1
    24    12    13   ar
    25     2     7    1
    26     2     1   ar
    27    26    28    1
    28    26    27    2
    29     7     8    3
    30    28    29    1
    31     6     1   ar
