@<TRIPOS>MOLECULE
/tmp/ewbell/vina_2d3u_2d3u_lig/vina/vina2.pdbqt
 29 31 0 0 0
SMALL
GASTEIGER

@<TRIPOS>ATOM
      1  C1        12.0030   31.1530   74.0150 C.ar  563  INH563      0.0230
      2  C2        11.8530   30.0280   73.1470 C.ar  563  INH563      0.0440
      3  C3        10.5630   29.4410   73.0100 C.ar  563  INH563      0.0230
      4  C4         9.4540   29.9610   73.7130 C.ar  563  INH563      0.0140
      5  C5         9.5940   31.0870   74.5790 C.ar  563  INH563     -0.0190
      6  C6        10.8870   31.6730   74.7190 C.ar  563  INH563      0.0140
      7  C11       12.9690   29.4970   72.4220 C.1   563  INH563      0.0990
      8  N1        13.8770   29.0600   71.8110 N.1   563  INH563     -0.1910
      9  C10        8.4120   31.6160   75.2830 C.ar  563  INH563      0.0180
     10  C9         7.9080   32.9060   75.3020 C.ar  563  INH563      0.0510
     11  C8         6.7220   33.0490   76.1050 C.ar  563  INH563      0.0670
     12  C7         6.3550   31.8410   76.6820 C.ar  563  INH563      0.1060
     13  S1         7.4340   30.6020   76.2470 S.2   563  INH563     -0.0810
     14  N2         6.0140   34.3070   76.2890 N.pl3 563  INH563     -0.2790
     15  H6         5.0620   34.3880   75.9920 H     563  INH563      0.1790
     16  S2         6.7870   35.6360   77.0000 S.O2  563  INH563      0.2630
     17  O4         5.7490   36.6340   77.1470 O.2   563  INH563     -0.2000
     18  O3         7.3160   35.1860   78.2800 O.2   563  INH563     -0.2000
     19  C14        8.1010   36.3320   76.0110 C.ar  563  INH563      0.0850
     20  C13        9.4780   35.9820   76.1800 C.ar  563  INH563     -0.0390
     21  C19        9.9520   34.9910   77.2180 C.3   563  INH563      0.0500
     22  C18       10.4510   36.5990   75.3290 C.ar  563  INH563      0.0080
     23  C17       10.0630   37.5380   74.3340 C.ar  563  INH563      0.0010
     24  C16        8.6940   37.8790   74.1760 C.ar  563  INH563      0.0020
     25  C15        7.7260   37.2770   75.0090 C.ar  563  INH563      0.0260
     26  C12        5.1730   31.6510   77.5670 C.2   563  INH563      0.1850
     27  O2         4.0450   32.0460   77.1770 O.2   563  INH563     -0.6460
     28  O1         5.3680   31.0750   78.6500 O.3   563  INH563     -0.7720
     29  H          5.4620   31.5760   79.4370 H     563  INH563      0.1670
@<TRIPOS>BOND
     1     8     7    3
     2     7     2    1
     3     3     2   ar
     4     3     4   ar
     5     2     1   ar
     6     4     5   ar
     7     1     6   ar
     8    24    23   ar
     9    24    25   ar
    10    23    22   ar
    11     5     6   ar
    12     5     9    1
    13    25    19   ar
    14     9    10   ar
    15     9    13   ar
    16    10    11   ar
    17    22    20   ar
    18    15    14    1
    19    19    20   ar
    20    19    16    1
    21    11    14    1
    22    11    12   ar
    23    20    21    1
    24    13    12   ar
    25    14    16    1
    26    12    26    1
    27    16    17    2
    28    16    18    2
    29    27    26    2
    30    26    28    1
    31    28    29    1
