@<TRIPOS>MOLECULE
./ligand/1bky_lig.pdb
 17 17 0 0 0
SMALL
GASTEIGER

@<TRIPOS>ATOM
      1  N1        18.4620   14.3930   19.9330 N.am  592  INH592     -0.1588
      2  C1        18.5980   13.0500   19.9160 C.2   592  INH592      0.2593
      3  N2        16.7750   14.4510   21.6720 N.am  592  INH592     -0.2597
      4  C2        15.8510   15.1680   22.5430 C.3   592  INH592      0.0073
      5  C3        17.5970   14.9970   20.7610 C.2   592  INH592      0.3946
      6  O1        17.5310   16.3820   20.6740 O.2   592  INH592     -0.2236
      7  N3        19.4340   12.4620   19.0680 N.pl3 592  INH592     -0.2514
      8  C4        17.7940   12.3450   20.8290 C.2   592  INH592      0.0232
      9  C5        16.9210   13.1190   21.6630 C.3   592  INH592      0.0773
     10  H1        15.3140   14.4490   23.1790 H     592  INH592      0.0430
     11  H2        15.1280   15.7260   21.9300 H     592  INH592      0.0430
     12  H3        16.4140   15.8700   23.1760 H     592  INH592      0.0430
     13  H4        19.5280   11.4360   19.0660 H     592  INH592      0.2881
     14  H5        19.9880   13.0320   18.4130 H     592  INH592      0.2881
     15  H6        17.8330   11.2590   20.9000 H     592  INH592      0.0669
     16  H7        16.3070   12.5610   22.3690 H     592  INH592      0.0570
     17  H8        19.0180   14.9490   19.3150 H     592  INH592      0.3027
@<TRIPOS>BOND
     1     1     5   am
     2     1    17    1
     3     1     2    1
     4     2     8    2
     5     2     7    1
     6     3     9    1
     7     3     5   am
     8     3     4    1
     9     4    12    1
    10     4    11    1
    11     4    10    1
    12     5     6    2
    13     7    14    1
    14     7    13    1
    15     8    15    1
    16     8     9    1
    17     9    16    1
