@<TRIPOS>MOLECULE
/tmp/ewbell/vina_1bky_1bky_lig/vina/vina1.pdbqt
 13 13 0 0 0
SMALL
GASTEIGER

@<TRIPOS>ATOM
      1  N1        15.6320   20.9410   31.8640 N.pl3 592  INH592     -0.3090
      2  C1        16.0970   20.4280   33.0230 C.2   592  INH592      0.0990
      3  N2        13.4850   21.6400   32.7440 N.3   592  INH592     -0.3480
      4  C2        12.1660   22.2420   32.5880 C.3   592  INH592      0.1530
      5  C3        14.4100   21.4870   31.7830 C.3   592  INH592      0.2200
      6  N3        17.2960   19.8600   33.0820 N.pl3 592  INH592     -0.3860
      7  C4        15.2270   20.5240   34.1240 C.2   592  INH592      0.0410
      8  C5        13.9530   21.1420   33.8970 C.3   592  INH592      0.1570
      9  H4        17.6380   19.4720   33.9730 H     592  INH592      0.1570
     10  H5        17.8830   19.8080   32.2380 H     592  INH592      0.1570
     11  H8        16.2120   20.9140   31.0500 H     592  INH592      0.1710
     12  O1        14.0350   21.9650   30.5330 O.3   592  INH592     -0.3320
     13  H1        13.7510   21.3120   29.9030 H     592  INH592      0.2200
@<TRIPOS>BOND
     1    13    12    1
     2    12     5    1
     3    11     1    1
     4     5     1    1
     5     5     3    1
     6     1     2    1
     7    10     6    1
     8     4     3    1
     9     3     8    1
    10     2     6    1
    11     2     7    2
    12     6     9    1
    13     8     7    1
