@<TRIPOS>MOLECULE
/tmp/ewbell/vina_1bky_1bky_lig/vina/vina4.pdbqt
 13 13 0 0 0
SMALL
GASTEIGER

@<TRIPOS>ATOM
      1  N1        13.0100   22.5140   31.9020 N.pl3 592  INH592     -0.3090
      2  C1        12.2520   22.9380   32.9360 C.2   592  INH592      0.0990
      3  N2        14.5340   21.1850   33.2370 N.3   592  INH592     -0.3480
      4  C2        15.6940   20.3120   33.3770 C.3   592  INH592      0.1530
      5  C3        14.0630   21.7070   32.0920 C.3   592  INH592      0.2200
      6  N3        11.2310   23.7640   32.7370 N.pl3 592  INH592     -0.3860
      7  C4        12.6310   22.4620   34.2030 C.2   592  INH592      0.0410
      8  C5        13.7730   21.5960   34.2600 C.3   592  INH592      0.1570
      9  H4        10.6610   24.0790   33.5360 H     592  INH592      0.1570
     10  H5        11.0100   24.0890   31.7850 H     592  INH592      0.1570
     11  H8        12.7800   22.8090   30.9740 H     592  INH592      0.1710
     12  O1        14.7790   21.3540   30.9550 O.3   592  INH592     -0.3320
     13  H1        14.4480   20.6090   30.4660 H     592  INH592      0.2200
@<TRIPOS>BOND
     1    13    12    1
     2    12     5    1
     3    11     1    1
     4    10     6    1
     5     1     5    1
     6     1     2    1
     7     5     3    1
     8     6     2    1
     9     6     9    1
    10     2     7    2
    11     3     4    1
    12     3     8    1
    13     7     8    1
