@<TRIPOS>MOLECULE
/tmp/ewbell/vina_1bky_1bky_lig/vina/vina2.pdbqt
 13 13 0 0 0
SMALL
GASTEIGER

@<TRIPOS>ATOM
      1  N1        15.9850   16.3460   22.5000 N.pl3 592  INH592     -0.3090
      2  C1        16.1760   17.5300   21.8800 C.2   592  INH592      0.0990
      3  N2        17.3380   15.0420   20.9700 N.3   592  INH592     -0.3480
      4  C2        17.9070   13.7790   20.5140 C.3   592  INH592      0.1530
      5  C3        16.5390   15.2170   22.0350 C.3   592  INH592      0.2200
      6  N3        15.5950   18.6360   22.3310 N.pl3 592  INH592     -0.3860
      7  C4        17.0020   17.4950   20.7420 C.2   592  INH592      0.0410
      8  C5        17.5370   16.2200   20.3630 C.3   592  INH592      0.1570
      9  H4        15.7490   19.5320   21.8480 H     592  INH592      0.1570
     10  H5        14.9890   18.5960   23.1630 H     592  INH592      0.1570
     11  H8        15.4180   16.3110   23.3230 H     592  INH592      0.1710
     12  O1        16.2550   14.0580   22.7460 O.3   592  INH592     -0.3320
     13  H1        16.0300   13.2930   22.2280 H     592  INH592      0.2200
@<TRIPOS>BOND
     1     8     7    1
     2     8     3    1
     3     4     3    1
     4     7     2    2
     5     3     5    1
     6     9     6    1
     7     2     6    1
     8     2     1    1
     9     5     1    1
    10     5    12    1
    11    13    12    1
    12     6    10    1
    13     1    11    1
