@<TRIPOS>MOLECULE
/tmp/ewbell/vina_1bky_1bky_lig/vina/vina3.pdbqt
 13 13 0 0 0
SMALL
GASTEIGER

@<TRIPOS>ATOM
      1  N1         8.3820   23.6220    7.9000 N.pl3 592  INH592     -0.3090
      2  C1         8.9520   22.4050    7.7700 C.2   592  INH592      0.0990
      3  N2        10.1860   24.6060    9.1870 N.3   592  INH592     -0.3480
      4  C2        10.7910   25.7190    9.9080 C.3   592  INH592      0.1530
      5  C3         8.9910   24.6100    8.5730 C.3   592  INH592      0.2200
      6  N3         8.3240   21.4260    7.1300 N.pl3 592  INH592     -0.3860
      7  C4        10.2170   22.2590    8.3650 C.2   592  INH592      0.0410
      8  C5        10.7550   23.4010    9.0450 C.3   592  INH592      0.1570
      9  H4         8.7710   20.5020    7.0380 H     592  INH592      0.1570
     10  H5         7.3910   21.5900    6.7250 H     592  INH592      0.1570
     11  H8         7.4880   23.7910    7.4860 H     592  INH592      0.1710
     12  O1         8.2980   25.8120    8.6570 O.3   592  INH592     -0.3320
     13  H1         8.6850   26.5500    8.2010 H     592  INH592      0.2200
@<TRIPOS>BOND
     1    10     6    1
     2     9     6    1
     3     6     2    1
     4    11     1    1
     5     2     1    1
     6     2     7    2
     7     1     5    1
     8    13    12    1
     9     7     8    1
    10     5    12    1
    11     5     3    1
    12     8     3    1
    13     3     4    1
