@<TRIPOS>MOLECULE
/tmp/ewbell/vina_1bky_1bky_lig/vina/vina5.pdbqt
 13 13 0 0 0
SMALL
GASTEIGER

@<TRIPOS>ATOM
      1  N1        15.6400   20.9150   31.8440 N.pl3 592  INH592     -0.3090
      2  C1        14.4160   21.4760   31.7420 C.2   592  INH592      0.0990
      3  N2        15.4910   20.4210   34.2120 N.3   592  INH592     -0.3480
      4  C2        16.0500   19.8970   35.4530 C.3   592  INH592      0.1530
      5  C3        16.0980   20.4460   33.0140 C.3   592  INH592      0.2200
      6  N3        13.9870   21.9670   30.5850 N.pl3 592  INH592     -0.3860
      7  C4        13.6620   21.5130   32.9280 C.2   592  INH592      0.0410
      8  C5        14.2720   20.9660   34.1060 C.3   592  INH592      0.1570
      9  H4        13.0510   22.3920   30.5210 H     592  INH592      0.1570
     10  H5        14.5910   21.9220   29.7510 H     592  INH592      0.1570
     11  H8        16.2170   20.8480   31.0300 H     592  INH592      0.1710
     12  O1        17.3790   19.9090   32.9990 O.3   592  INH592     -0.3320
     13  H1        17.5360   19.1840   33.5930 H     592  INH592      0.2200
@<TRIPOS>BOND
     1    10     6    1
     2     9     6    1
     3     6     2    1
     4    11     1    1
     5     2     1    1
     6     2     7    2
     7     1     5    1
     8     7     8    1
     9    12     5    1
    10    12    13    1
    11     5     3    1
    12     8     3    1
    13     3     4    1
