@<TRIPOS>MOLECULE
./ligand/2cjp_lig.pdb
 27 26 0 0 0
SMALL
GASTEIGER

@<TRIPOS>ATOM
      1  C1        16.8250   90.0690   32.1330 C.3   322  INH322     -0.0653
      2  C2        17.5950   90.4950   33.3660 C.3   322  INH322     -0.0552
      3  C3        17.0650   91.8060   33.9340 C.3   322  INH322     -0.0422
      4  C4        18.1520   92.8580   34.1400 C.3   322  INH322      0.0353
      5  C5        17.5140   94.1820   34.5390 C.3   322  INH322     -0.0422
      6  C6        17.8160   95.2580   33.5070 C.3   322  INH322     -0.0552
      7  C7        16.7810   96.3630   33.5220 C.3   322  INH322     -0.0653
      8  C8        19.1520   92.4340   35.1880 C.2   322  INH322      0.2136
      9  N1        18.7020   92.0810   36.3970 N.am  322  INH322     -0.3291
     10  O1        20.3350   92.4200   34.8850 O.2   322  INH322     -0.2757
     11  H1        17.2360   89.1220   31.7530 H     322  INH322      0.0230
     12  H2        16.9150   90.8440   31.3580 H     322  INH322      0.0230
     13  H3        15.7650   89.9310   32.3920 H     322  INH322      0.0230
     14  H4        18.6540   90.6240   33.0980 H     322  INH322      0.0263
     15  H5        17.5030   89.7110   34.1320 H     322  INH322      0.0263
     16  H6        16.5910   91.6000   34.9050 H     322  INH322      0.0272
     17  H7        16.3150   92.2100   33.2380 H     322  INH322      0.0272
     18  H8        18.6860   92.9950   33.1880 H     322  INH322      0.0394
     19  H9        17.9130   94.4960   35.5150 H     322  INH322      0.0272
     20  H10       16.4250   94.0500   34.6140 H     322  INH322      0.0272
     21  H11       17.8300   94.7980   32.5080 H     322  INH322      0.0263
     22  H12       18.8030   95.6920   33.7250 H     322  INH322      0.0263
     23  H13       17.0380   97.1170   32.7630 H     322  INH322      0.0230
     24  H14       16.7630   96.8350   34.5150 H     322  INH322      0.0230
     25  H15       15.7900   95.9400   33.2980 H     322  INH322      0.0230
     26  H16       19.3460   91.7970   37.1070 H     322  INH322      0.1449
     27  H17       17.7210   92.1020   36.5910 H     322  INH322      0.1449
@<TRIPOS>BOND
     1     1    13    1
     2     1    12    1
     3     1    11    1
     4     1     2    1
     5     2    15    1
     6     2    14    1
     7     2     3    1
     8     3    17    1
     9     3    16    1
    10     3     4    1
    11     4    18    1
    12     4     8    1
    13     4     5    1
    14     5    20    1
    15     5    19    1
    16     5     6    1
    17     6    22    1
    18     6    21    1
    19     6     7    1
    20     7    25    1
    21     7    24    1
    22     7    23    1
    23     8    10    2
    24     8     9   am
    25     9    27    1
    26     9    26    1
