@<TRIPOS>MOLECULE
/tmp/ewbell/vina_2cjp_2cjp_lig/vina/vina2.pdbqt
 12 11 0 0 0
SMALL
GASTEIGER

@<TRIPOS>ATOM
      1  C4        17.7050   93.1970   33.9240 C.3   322  INH322      0.0770
      2  C3        16.7140   94.3480   33.7760 C.3   322  INH322      0.0130
      3  C2        17.3860   95.6990   33.5570 C.3   322  INH322     -0.0040
      4  C1        16.4080   96.7310   33.0360 C.3   322  INH322      0.0050
      5  C8        17.0060   91.8630   34.0170 C.2   322  INH322      0.2190
      6  O1        16.7400   91.2770   32.9790 O.2   322  INH322     -0.2730
      7  N1        16.6980   91.3840   35.2270 N.am  322  INH322     -0.3700
      8  H17       16.9310   91.9090   36.0470 H     322  INH322      0.1590
      9  H16       16.2350   90.5020   35.3130 H     322  INH322      0.1590
     10  C5        18.5660   93.4180   35.1610 C.3   322  INH322      0.0130
     11  C6        20.0410   93.2550   34.8270 C.3   322  INH322     -0.0040
     12  C7        20.4980   91.8190   34.9700 C.3   322  INH322      0.0050
@<TRIPOS>BOND
     1     6     5    2
     2     4     3    1
     3     3     2    1
     4     2     1    1
     5     1     5    1
     6     1    10    1
     7     5     7   am
     8    11    12    1
     9    11    10    1
    10     7     9    1
    11     7     8    1
