@<TRIPOS>MOLECULE
/tmp/ewbell/vina_2cjp_2cjp_lig/vina/vina3.pdbqt
 12 11 0 0 0
SMALL
GASTEIGER

@<TRIPOS>ATOM
      1  C4        24.2750   93.4210   38.1490 C.3   322  INH322      0.0770
      2  C3        24.4270   93.9070   39.5890 C.3   322  INH322      0.0130
      3  C2        24.9420   95.3380   39.6910 C.3   322  INH322     -0.0040
      4  C1        26.0000   95.6260   38.6460 C.3   322  INH322      0.0050
      5  C8        22.8340   93.4360   37.7020 C.2   322  INH322      0.2190
      6  O1        22.5730   93.9110   36.6080 O.2   322  INH322     -0.2730
      7  N1        21.9030   92.9390   38.5240 N.am  322  INH322     -0.3700
      8  H17       22.1690   92.5680   39.4140 H     322  INH322      0.1590
      9  H16       20.9420   92.9380   38.2480 H     322  INH322      0.1590
     10  C5        24.8430   92.0140   38.0200 C.3   322  INH322      0.0130
     11  C6        26.1400   92.0270   37.2250 C.3   322  INH322     -0.0040
     12  C7        25.9120   92.4090   35.7780 C.3   322  INH322      0.0050
@<TRIPOS>BOND
     1    12    11    1
     2     6     5    2
     3    11    10    1
     4     5     1    1
     5     5     7   am
     6    10     1    1
     7     1     2    1
     8     9     7    1
     9     7     8    1
    10     4     3    1
    11     2     3    1
