@<TRIPOS>MOLECULE
/tmp/ewbell/vina_2cjp_2cjp_lig/vina/vina1.pdbqt
 12 11 0 0 0
SMALL
GASTEIGER

@<TRIPOS>ATOM
      1  C4        18.5130   92.7380   34.2510 C.3   322  INH322      0.0770
      2  C3        18.0810   91.2860   34.0580 C.3   322  INH322      0.0130
      3  C2        16.8230   91.1400   33.2100 C.3   322  INH322     -0.0040
      4  C1        17.0470   90.2110   32.0350 C.3   322  INH322      0.0050
      5  C8        19.2910   92.9270   35.5300 C.2   322  INH322      0.2190
      6  O1        20.3860   93.4620   35.4670 O.2   322  INH322     -0.2730
      7  N1        18.7540   92.4910   36.6760 N.am  322  INH322     -0.3700
      8  H17       17.8560   92.0510   36.6720 H     322  INH322      0.1590
      9  H16       19.2520   92.6060   37.5360 H     322  INH322      0.1590
     10  C5        17.2870   93.6410   34.2520 C.3   322  INH322      0.0130
     11  C6        17.6460   95.0390   33.7730 C.3   322  INH322     -0.0040
     12  C7        16.4430   95.7760   33.2240 C.3   322  INH322      0.0050
@<TRIPOS>BOND
     1     4     3    1
     2     3     2    1
     3    12    11    1
     4    11    10    1
     5     2     1    1
     6     1    10    1
     7     1     5    1
     8     6     5    2
     9     5     7   am
    10     8     7    1
    11     7     9    1
