@<TRIPOS>MOLECULE
/tmp/ewbell/vina_2cjp_2cjp_lig/vina/vina4.pdbqt
 12 11 0 0 0
SMALL
GASTEIGER

@<TRIPOS>ATOM
      1  C4        17.7530   93.4750   34.2590 C.3   322  INH322      0.0770
      2  C3        16.8430   92.4280   33.6210 C.3   322  INH322      0.0130
      3  C2        17.4980   91.0570   33.4950 C.3   322  INH322     -0.0040
      4  C1        17.0470   90.3370   32.2410 C.3   322  INH322      0.0050
      5  C8        17.3000   94.8800   33.9420 C.2   322  INH322      0.2190
      6  O1        17.9320   95.8110   34.4160 O.2   322  INH322     -0.2730
      7  N1        16.2220   95.0460   33.1680 N.am  322  INH322     -0.3700
      8  H17       15.7340   94.2480   32.8120 H     322  INH322      0.1590
      9  H16       15.9040   95.9670   32.9450 H     322  INH322      0.1590
     10  C5        19.1830   93.2720   33.7780 C.3   322  INH322      0.0130
     11  C6        20.1390   93.1670   34.9570 C.3   322  INH322     -0.0040
     12  C7        20.8650   91.8390   34.9800 C.3   322  INH322      0.0050
@<TRIPOS>BOND
     1     4     3    1
     2     8     7    1
     3     9     7    1
     4     7     5   am
     5     3     2    1
     6     2     1    1
     7    10     1    1
     8    10    11    1
     9     5     1    1
    10     5     6    2
    11    11    12    1
