@<TRIPOS>MOLECULE
/tmp/ewbell/vina_2cjp_2cjp_lig/vina/vina5.pdbqt
 12 11 0 0 0
SMALL
GASTEIGER

@<TRIPOS>ATOM
      1  C4        17.8940   93.5170   33.7500 C.3   322  INH322      0.0770
      2  C3        19.4210   93.5190   33.7750 C.3   322  INH322      0.0130
      3  C2        20.0020   93.0960   35.1190 C.3   322  INH322     -0.0040
      4  C1        21.0440   92.0090   34.9580 C.3   322  INH322      0.0050
      5  C8        17.3300   94.9150   33.8160 C.2   322  INH322      0.2190
      6  O1        17.9140   95.7420   34.4990 O.2   322  INH322     -0.2730
      7  N1        16.2100   95.1870   33.1360 N.am  322  INH322     -0.3700
      8  H17       15.7650   94.4700   32.5990 H     322  INH322      0.1590
      9  H16       15.8190   96.1060   33.1650 H     322  INH322      0.1590
     10  C5        17.3640   92.6900   34.9140 C.3   322  INH322      0.0130
     11  C6        17.1280   91.2490   34.4870 C.3   322  INH322     -0.0040
     12  C7        16.7980   91.1420   33.0140 C.3   322  INH322      0.0050
@<TRIPOS>BOND
     1     8     7    1
     2    12    11    1
     3     7     9    1
     4     7     5   am
     5     1     2    1
     6     1     5    1
     7     1    10    1
     8     2     3    1
     9     5     6    2
    10    11    10    1
    11     4     3    1
