@<TRIPOS>MOLECULE
./ligand/2pvu_lig.pdb
 25 24 0 0 0
SMALL
GASTEIGER

@<TRIPOS>ATOM
      1  N1       -13.9730   22.9190   12.8300 N.4   238  INH238      0.2289
      2  C1       -13.0840   23.8760   13.5690 C.3   238  INH238      0.0785
      3  C2       -12.4030   24.8150   12.5640 C.2   238  INH238      0.4026
      4  O1       -12.4970   24.6210   11.3320 O.co2 238  INH238     -0.2400
      5  C3       -12.0170   23.1140   14.3470 C.3   238  INH238      0.0011
      6  C4       -11.1420   22.2350   13.4200 C.3   238  INH238     -0.0426
      7  C5        -9.7990   21.8730   14.0890 C.3   238  INH238     -0.0124
      8  C6        -9.2180   20.6340   13.4240 C.3   238  INH238     -0.0354
      9  N2        -7.7710   20.3520   13.9330 N.4   238  INH238      0.2185
     10  O2       -11.7370   25.7620   12.9560 O.co2 238  INH238     -0.2400
     11  H1       -13.9960   23.1670   11.8530 H     238  INH238      0.2002
     12  H2       -13.6910   24.4680   14.2700 H     238  INH238      0.0970
     13  H3       -12.5110   22.4680   15.0870 H     238  INH238      0.0325
     14  H4       -11.3700   23.8370   14.8650 H     238  INH238      0.0325
     15  H5       -10.9410   22.7860   12.4900 H     238  INH238      0.0269
     16  H6       -11.6870   21.3080   13.1870 H     238  INH238      0.0269
     17  H7        -9.9640   21.6720   15.1580 H     238  INH238      0.0317
     18  H8        -9.0960   22.7120   13.9780 H     238  INH238      0.0317
     19  H9        -9.1920   20.7890   12.3350 H     238  INH238      0.0813
     20  H10       -9.8560   19.7690   13.6560 H     238  INH238      0.0813
     21  H11      -13.6110   21.9710   12.9310 H     238  INH238      0.2002
     22  H12       -7.1780   21.1360   13.7110 H     238  INH238      0.1994
     23  H13       -7.4130   19.5230   13.4860 H     238  INH238      0.1994
     24  H14       -7.7870   20.2150   14.9320 H     238  INH238      0.1994
     25  H15      -14.9050   22.9650   13.2100 H     238  INH238      0.2002
@<TRIPOS>BOND
     1     1     2    1
     2     1    25    1
     3     1    21    1
     4     1    11    1
     5     2     5    1
     6     2    12    1
     7     2     3    1
     8     3    10   ar
     9     3     4   ar
    10     5    13    1
    11     5    14    1
    12     5     6    1
    13     6     7    1
    14     6    16    1
    15     6    15    1
    16     7    17    1
    17     7    18    1
    18     7     8    1
    19     8     9    1
    20     8    20    1
    21     8    19    1
    22     9    24    1
    23     9    22    1
    24     9    23    1
