@<TRIPOS>MOLECULE
/tmp/ewbell/vina_2pvu_2pvu_lig/vina/vina5.pdbqt
 17 16 0 0 0
SMALL
GASTEIGER

@<TRIPOS>ATOM
      1  C1        -9.9150   13.0550   20.9600 C.3   238  INH238      0.2800
      2  N1       -11.3770   13.1490   20.6360 N.4   238  INH238     -0.0650
      3  H15      -11.4950   13.2650   19.6420 H     238  INH238      0.2750
      4  H11      -11.7830   13.9490   21.1220 H     238  INH238      0.2750
      5  H1       -11.8420   12.3060   20.9340 H     238  INH238      0.2750
      6  C3        -9.5070   11.5990   21.1560 C.3   238  INH238      0.0440
      7  C4       -10.7320   10.6830   21.3980 C.3   238  INH238      0.0040
      8  C5       -10.3330    9.3940   22.1470 C.3   238  INH238      0.0270
      9  C6        -9.5030    8.5090   21.2280 C.3   238  INH238      0.2290
     10  N2       -10.2770    8.1880   19.9130 N.4   238  INH238     -0.0790
     11  H14       -9.6670    7.7000   19.2760 H     238  INH238      0.2740
     12  H12      -10.5890    9.0470   19.4890 H     238  INH238      0.2740
     13  H13      -11.0740    7.6090   20.1250 H     238  INH238      0.2740
     14  C2        -9.1000   13.6570   19.8060 C.2   238  INH238      0.1710
     15  O2        -8.0240   13.1700   19.4900 O.2   238  INH238     -0.6480
     16  O1        -9.5260   14.6370   19.1560 O.3   238  INH238     -0.7750
     17  H         -9.2250   14.7850   18.2820 H     238  INH238      0.1670
@<TRIPOS>BOND
     1    17    16    1
     2    16    14    1
     3    11    10    1
     4    12    10    1
     5    15    14    2
     6     3     2    1
     7    14     1    1
     8    10    13    1
     9    10     9    1
    10     2     5    1
    11     2     1    1
    12     2     4    1
    13     1     6    1
    14     6     7    1
    15     9     8    1
    16     7     8    1
