@<TRIPOS>MOLECULE
/tmp/ewbell/vina_2pvu_2pvu_lig/vina/vina2.pdbqt
 17 16 0 0 0
SMALL
GASTEIGER

@<TRIPOS>ATOM
      1  C1        -8.6010   13.2790   20.7700 C.3   238  INH238      0.2800
      2  N1        -7.8890   14.0030   21.8750 N.4   238  INH238     -0.0650
      3  H15       -7.3310   13.3490   22.4000 H     238  INH238      0.2750
      4  H11       -8.5740   14.4370   22.4940 H     238  INH238      0.2750
      5  H1        -7.2940   14.7160   21.4830 H     238  INH238      0.2750
      6  C3       -10.1050   13.5130   20.8660 C.3   238  INH238      0.0440
      7  C4       -10.8930   12.1830   20.9470 C.3   238  INH238      0.0040
      8  C5        -9.9680   11.0000   21.3010 C.3   238  INH238      0.0270
      9  C6       -10.7600    9.9460   22.0620 C.3   238  INH238      0.2290
     10  N2        -9.9170    8.6480   22.2580 N.4   238  INH238     -0.0790
     11  H14      -10.1330    8.2400   23.1540 H     238  INH238      0.2740
     12  H12       -8.9370    8.8750   22.2190 H     238  INH238      0.2740
     13  H13      -10.1390    7.9900   21.5270 H     238  INH238      0.2740
     14  C2        -8.0950   13.7960   19.4160 C.2   238  INH238      0.1710
     15  O2        -7.3980   13.0860   18.7050 O.2   238  INH238     -0.6480
     16  O1        -8.3990   14.9380   19.0050 O.3   238  INH238     -0.7750
     17  H         -8.6340   15.6080   19.6160 H     238  INH238      0.1670
@<TRIPOS>BOND
     1    15    14    2
     2    16    14    1
     3    16    17    1
     4    14     1    1
     5     1     6    1
     6     1     2    1
     7     6     7    1
     8     7     8    1
     9     8     9    1
    10     5     2    1
    11    13    10    1
    12     2     3    1
    13     2     4    1
    14     9    10    1
    15    12    10    1
    16    10    11    1
