@<TRIPOS>MOLECULE
/tmp/ewbell/vina_2pvu_2pvu_lig/vina/vina1.pdbqt
 17 16 0 0 0
SMALL
GASTEIGER

@<TRIPOS>ATOM
      1  C1       -11.5620   23.1880   17.5750 C.3   238  INH238      0.2800
      2  N1       -12.4640   24.3350   17.2220 N.4   238  INH238     -0.0650
      3  H15      -11.9140   25.1700   17.1020 H     238  INH238      0.2750
      4  H11      -13.1410   24.4780   17.9720 H     238  INH238      0.2750
      5  H1       -12.9530   24.1270   16.3660 H     238  INH238      0.2750
      6  C3       -10.7190   22.7870   16.3690 C.3   238  INH238      0.0440
      7  C4       -11.5930   22.4730   15.1300 C.3   238  INH238      0.0040
      8  C5       -11.0680   23.1960   13.8720 C.3   238  INH238      0.0270
      9  C6       -12.1520   24.1130   13.3240 C.3   238  INH238      0.2290
     10  N2       -13.4860   23.3350   13.1080 N.4   238  INH238     -0.0790
     11  H14      -14.1730   23.9520   12.7030 H     238  INH238      0.2740
     12  H12      -13.8220   22.9920   13.9930 H     238  INH238      0.2740
     13  H13      -13.3250   22.5580   12.4860 H     238  INH238      0.2740
     14  C2       -10.6350   23.6060   18.7230 C.2   238  INH238      0.1710
     15  O2        -9.9340   22.7770   19.2850 O.2   238  INH238     -0.6480
     16  O1       -10.5610   24.7990   19.0930 O.3   238  INH238     -0.7750
     17  H        -11.3410   25.3080   19.1910 H     238  INH238      0.1670
@<TRIPOS>BOND
     1    13    10    1
     2    11    10    1
     3    10     9    1
     4    10    12    1
     5     9     8    1
     6     8     7    1
     7     7     6    1
     8     5     2    1
     9     6     1    1
    10     3     2    1
    11     2     1    1
    12     2     4    1
    13     1    14    1
    14    14    16    1
    15    14    15    2
    16    16    17    1
