@<TRIPOS>MOLECULE
/tmp/ewbell/vina_2pvu_2pvu_lig/vina/vina4.pdbqt
 17 16 0 0 0
SMALL
GASTEIGER

@<TRIPOS>ATOM
      1  C1        -9.6890   12.7930   20.5890 C.3   238  INH238      0.2800
      2  N1        -9.7790   14.1970   21.1110 N.4   238  INH238     -0.0650
      3  H15       -9.1750   14.7960   20.5700 H     238  INH238      0.2750
      4  H11       -9.4880   14.2160   22.0880 H     238  INH238      0.2750
      5  H1       -10.7300   14.5230   21.0380 H     238  INH238      0.2750
      6  C3        -8.5390   12.0510   21.2610 C.3   238  INH238      0.0440
      7  C4        -7.2360   12.8870   21.2690 C.3   238  INH238      0.0040
      8  C5        -6.6020   12.9300   22.6760 C.3   238  INH238      0.0270
      9  C6        -6.7330   14.3330   23.2490 C.3   238  INH238      0.2290
     10  N2        -5.7970   14.5220   24.4830 N.4   238  INH238     -0.0790
     11  H14       -4.8390   14.4010   24.1990 H     238  INH238      0.2740
     12  H12       -6.0280   13.8390   25.1870 H     238  INH238      0.2740
     13  H13       -5.9220   15.4480   24.8610 H     238  INH238      0.2740
     14  C2       -11.0040   12.0580   20.8800 C.2   238  INH238      0.1710
     15  O2       -10.9920   10.9520   21.4010 O.2   238  INH238     -0.6480
     16  O1       -12.1100   12.5800   20.6130 O.3   238  INH238     -0.7750
     17  H        -12.5970   13.0120   21.2850 H     238  INH238      0.1670
@<TRIPOS>BOND
     1     3     2    1
     2     1    14    1
     3     1     2    1
     4     1     6    1
     5    16    14    1
     6    16    17    1
     7    14    15    2
     8     5     2    1
     9     2     4    1
    10     6     7    1
    11     7     8    1
    12     8     9    1
    13     9    10    1
    14    11    10    1
    15    10    13    1
    16    10    12    1
