@<TRIPOS>MOLECULE
/tmp/ewbell/vina_2pvu_2pvu_lig/vina/vina3.pdbqt
 17 16 0 0 0
SMALL
GASTEIGER

@<TRIPOS>ATOM
      1  C1        -8.4020   13.0730   21.1870 C.3   238  INH238      0.2800
      2  N1        -7.6410   11.7810   21.1390 N.4   238  INH238     -0.0650
      3  H15       -6.8930   11.8050   21.8130 H     238  INH238      0.2750
      4  H11       -7.2520   11.6500   20.2050 H     238  INH238      0.2750
      5  H1        -8.2620   11.0160   21.3520 H     238  INH238      0.2750
      6  C3        -7.6300   14.1130   21.9920 C.3   238  INH238      0.0440
      7  C4        -6.5260   13.4660   22.8640 C.3   238  INH238      0.0040
      8  C5        -6.1850   14.3440   24.0870 C.3   238  INH238      0.0270
      9  C6        -5.2300   13.5930   25.0030 C.3   238  INH238      0.2290
     10  N2        -5.5910   13.8290   26.5020 N.4   238  INH238     -0.0790
     11  H14       -5.7190   14.8150   26.6640 H     238  INH238      0.2740
     12  H12       -4.8450   13.4870   27.0850 H     238  INH238      0.2740
     13  H13       -6.4430   13.3380   26.7230 H     238  INH238      0.2740
     14  C2        -8.6100   13.5940   19.7580 C.2   238  INH238      0.1710
     15  O2        -7.6970   13.5510   18.9460 O.2   238  INH238     -0.6480
     16  O1        -9.7150   14.0490   19.3900 O.3   238  INH238     -0.7750
     17  H        -10.3800   14.2340   20.0240 H     238  INH238      0.1670
@<TRIPOS>BOND
     1    15    14    2
     2    16    14    1
     3    16    17    1
     4    14     1    1
     5     4     2    1
     6     2     1    1
     7     2     5    1
     8     2     3    1
     9     1     6    1
    10     6     7    1
    11     7     8    1
    12     8     9    1
    13     9    10    1
    14    10    11    1
    15    10    13    1
    16    10    12    1
