@<TRIPOS>MOLECULE
./ligand/2hdq_lig.pdb
 11 11 0 0 0
SMALL
GASTEIGER

@<TRIPOS>ATOM
      1  O1        30.8320   11.4570   22.1070 O.co2 361  INH361     -0.2400
      2  C1        30.5120   10.2720   21.8270 C.2   361  INH361      0.3930
      3  O2        31.2790    9.3350   22.0920 O.co2 361  INH361     -0.2400
      4  C2        29.1990    9.9330   21.1810 C.ar  361  INH361      0.1003
      5  S1        28.1280   11.2510   20.8230 S.2   361  INH361     -0.0901
      6  C3        28.6190    8.7280   20.7780 C.ar  361  INH361     -0.0405
      7  C4        27.3500    8.8930   20.2100 C.ar  361  INH361     -0.0539
      8  C5        26.9380   10.2120   20.1370 C.ar  361  INH361     -0.0235
      9  H1        29.1040    7.7600   20.8940 H     361  INH361      0.0631
     10  H2        26.7430    8.0600   19.8580 H     361  INH361      0.0623
     11  H3        25.9950   10.5460   19.7070 H     361  INH361      0.0693
@<TRIPOS>BOND
     1     1     2   ar
     2     2     4    1
     3     2     3   ar
     4     4     6   ar
     5     4     5   ar
     6     5     8   ar
     7     6     7   ar
     8     6     9    1
     9     7     8   ar
    10     7    10    1
    11     8    11    1
