@<TRIPOS>MOLECULE
/tmp/ewbell/vina_2hdq_2hdq_lig/vina/vina3.pdbqt
 9 9 0 0 0
SMALL
GASTEIGER

@<TRIPOS>ATOM
      1  C2        29.0440   10.5630   21.3100 C.ar  361  INH361      0.0780
      2  S1        28.5410    8.9160   21.0930 S.2   361  INH361     -0.0950
      3  C3        28.0230   11.4270   20.9080 C.ar  361  INH361      0.0260
      4  C4        26.8880   10.7540   20.4380 C.ar  361  INH361      0.0090
      5  C5        26.9940    9.3760   20.4920 C.ar  361  INH361      0.0510
      6  C1        30.4190   10.7930   21.8690 C.2   361  INH361      0.1830
      7  O1        30.7910   11.9220   22.2840 O.2   361  INH361     -0.6460
      8  O2        31.1860    9.8200   21.9240 O.3   361  INH361     -0.7720
      9  H         31.2500    9.3180   22.7140 H     361  INH361      0.1670
@<TRIPOS>BOND
     1     4     5   ar
     2     4     3   ar
     3     5     2   ar
     4     3     1   ar
     5     2     1   ar
     6     1     6    1
     7     6     8    1
     8     6     7    2
     9     8     9    1
