@<TRIPOS>MOLECULE
/tmp/ewbell/vina_2hdq_2hdq_lig/vina/vina2.pdbqt
 9 9 0 0 0
SMALL
GASTEIGER

@<TRIPOS>ATOM
      1  C2        28.9900    9.5080   21.2620 C.ar  361  INH361      0.0780
      2  S1        27.4540   10.1690   20.7990 S.2   361  INH361     -0.0950
      3  C3        28.9570    8.1150   21.1600 C.ar  361  INH361      0.0260
      4  C4        27.7180    7.6260   20.7290 C.ar  361  INH361      0.0090
      5  C5        26.7880    8.6160   20.4640 C.ar  361  INH361      0.0510
      6  C1        30.0600   10.4790   21.6710 C.2   361  INH361      0.1830
      7  O1        31.2130   10.1000   22.0060 O.2   361  INH361     -0.6460
      8  O2        29.7740   11.6860   21.6580 O.3   361  INH361     -0.7720
      9  H         28.9010   11.9620   21.8590 H     361  INH361      0.1670
@<TRIPOS>BOND
     1     5     4   ar
     2     5     2   ar
     3     4     3   ar
     4     2     1   ar
     5     3     1   ar
     6     1     6    1
     7     8     6    1
     8     8     9    1
     9     6     7    2
