@<TRIPOS>MOLECULE
/tmp/ewbell/vina_2hdq_2hdq_lig/vina/vina5.pdbqt
 9 9 0 0 0
SMALL
GASTEIGER

@<TRIPOS>ATOM
      1  C2        27.3640    7.8780   20.4010 C.ar  361  INH361      0.0780
      2  S1        26.2490    9.1800   20.1250 S.2   361  INH361     -0.0950
      3  C3        28.5340    8.3720   20.9820 C.ar  361  INH361      0.0260
      4  C4        28.5060    9.7570   21.1810 C.ar  361  INH361      0.0090
      5  C5        27.3210   10.3540   20.7880 C.ar  361  INH361      0.0510
      6  C1        26.9230    6.5000   19.9990 C.2   361  INH361      0.1830
      7  O1        25.7070    6.1790   19.9410 O.2   361  INH361     -0.6460
      8  O2        27.8040    5.6770   19.7080 O.3   361  INH361     -0.7720
      9  H         27.8200    5.2910   18.8540 H     361  INH361      0.1670
@<TRIPOS>BOND
     1     9     8    1
     2     8     6    1
     3     7     6    2
     4     6     1    1
     5     2     1   ar
     6     2     5   ar
     7     1     3   ar
     8     5     4   ar
     9     3     4   ar
