@<TRIPOS>MOLECULE
/tmp/ewbell/vina_2hdq_2hdq_lig/vina/vina1.pdbqt
 9 9 0 0 0
SMALL
GASTEIGER

@<TRIPOS>ATOM
      1  C2        29.4160   11.2820   21.5690 C.ar  361  INH361      0.0780
      2  S1        27.7590   11.2630   21.0540 S.2   361  INH361     -0.0950
      3  C3        29.9270    9.9820   21.5700 C.ar  361  INH361      0.0260
      4  C4        28.9880    9.0230   21.1720 C.ar  361  INH361      0.0090
      5  C5        27.7560    9.5550   20.8330 C.ar  361  INH361      0.0510
      6  C1        30.0140   12.6170   21.9090 C.2   361  INH361      0.1830
      7  O1        31.2040   12.9090   21.6210 O.2   361  INH361     -0.6460
      8  O2        29.2860   13.4430   22.4800 O.3   361  INH361     -0.7720
      9  H         29.6230   14.2890   22.7030 H     361  INH361      0.1670
@<TRIPOS>BOND
     1     5     2   ar
     2     5     4   ar
     3     2     1   ar
     4     4     3   ar
     5     1     3   ar
     6     1     6    1
     7     7     6    2
     8     6     8    1
     9     8     9    1
