@<TRIPOS>MOLECULE
/tmp/ewbell/vina_2hdq_2hdq_lig/vina/vina4.pdbqt
 9 9 0 0 0
SMALL
GASTEIGER

@<TRIPOS>ATOM
      1  C2        28.8250    8.9860   21.1490 C.ar  361  INH361      0.0780
      2  S1        27.1950    9.3490   20.6770 S.2   361  INH361     -0.0950
      3  C3        29.5100   10.1690   21.4380 C.ar  361  INH361      0.0260
      4  C4        28.7220   11.3140   21.2690 C.ar  361  INH361      0.0090
      5  C5        27.4220   11.0450   20.8770 C.ar  361  INH361      0.0510
      6  C1        29.2250    7.5390   21.1770 C.2   361  INH361      0.1830
      7  O1        28.5520    6.6490   20.5940 O.2   361  INH361     -0.6460
      8  O2        30.2600    7.2420   21.7910 O.3   361  INH361     -0.7720
      9  H         30.2430    6.5630   22.4380 H     361  INH361      0.1670
@<TRIPOS>BOND
     1     7     6    2
     2     2     5   ar
     3     2     1   ar
     4     5     4   ar
     5     1     6    1
     6     1     3   ar
     7     6     8    1
     8     4     3   ar
     9     8     9    1
