@<TRIPOS>MOLECULE
./ligand/1rdn_lig.pdb
 30 30 0 0 0
SMALL
GASTEIGER

@<TRIPOS>ATOM
      1  C1         2.3560   46.6760   -0.1570 C.3   232  INH232      0.1776
      2  C2         2.6330   45.5650    0.8730 C.3   232  INH232      0.1021
      3  C3         3.2130   46.1620    2.1560 C.3   232  INH232      0.1065
      4  C4         4.4390   46.9740    1.8190 C.3   232  INH232      0.1112
      5  C5         4.1110   48.0510    0.7740 C.3   232  INH232      0.1129
      6  C6         5.3690   48.7940    0.3360 C.3   232  INH232      0.0730
      7  C7         1.2540   43.5570    1.0170 C.2   232  INH232      0.2104
      8  C8        -0.1100   43.0150    1.4250 C.3   232  INH232      0.0122
      9  N1         1.4030   44.8610    1.1940 N.am  232  INH232     -0.3053
     10  O1         1.2970   47.4780    0.2890 O.3   232  INH232     -0.3654
     11  O2         3.5730   45.1240    3.0580 O.3   232  INH232     -0.3871
     12  H1         2.8030   44.6100    3.2730 H     232  INH232      0.2100
     13  O3         4.9360   47.5780    2.9980 O.3   232  INH232     -0.3865
     14  H2         5.7250   48.0670    2.7950 H     232  INH232      0.2100
     15  O4         3.5370   47.4400   -0.4030 O.3   232  INH232     -0.3414
     16  O5         5.1100   49.6890   -0.7340 O.3   232  INH232     -0.3924
     17  H3         4.7770   49.2030   -1.4800 H     232  INH232      0.2095
     18  O6         2.1390   42.8500    0.5360 O.2   232  INH232     -0.2761
     19  H4         2.0540   46.2040   -1.1040 H     232  INH232      0.0928
     20  H5         3.3560   44.8540    0.4460 H     232  INH232      0.0575
     21  H6         2.4610   46.8110    2.6280 H     232  INH232      0.0640
     22  H7         5.2080   46.3040    1.4070 H     232  INH232      0.0646
     23  H8         3.3950   48.7650    1.2080 H     232  INH232      0.0647
     24  H9         6.1210   48.0600    0.0110 H     232  INH232      0.0584
     25  H10        5.7600   49.3660    1.1910 H     232  INH232      0.0584
     26  H11       -0.1430   41.9310    1.2440 H     232  INH232      0.0322
     27  H12       -0.8930   43.5090    0.8320 H     232  INH232      0.0322
     28  H13       -0.2790   43.2140    2.4940 H     232  INH232      0.0322
     29  H14        0.6360   45.3840    1.5650 H     232  INH232      0.1492
     30  H15        1.0960   48.1320   -0.3700 H     232  INH232      0.2125
@<TRIPOS>BOND
     1     1     2    1
     2     1    19    1
     3     1    15    1
     4     1    10    1
     5     2     9    1
     6     2    20    1
     7     2     3    1
     8     3     4    1
     9     3    21    1
    10     3    11    1
    11     4     5    1
    12     4    22    1
    13     4    13    1
    14     5    15    1
    15     5    23    1
    16     5     6    1
    17     6    25    1
    18     6    24    1
    19     6    16    1
    20     7    18    2
    21     7     9   am
    22     7     8    1
    23     8    28    1
    24     8    27    1
    25     8    26    1
    26     9    29    1
    27    10    30    1
    28    11    12    1
    29    13    14    1
    30    16    17    1
