@<TRIPOS>MOLECULE
/tmp/ewbell/vina_1rdn_1rdn_lig/vina/vina4.pdbqt
 20 20 0 0 0
SMALL
GASTEIGER

@<TRIPOS>ATOM
      1  C1         3.9950   44.0910   -1.0990 C.3   232  INH232      0.2820
      2  C2         3.4910   42.7100   -0.6400 C.3   232  INH232      0.1700
      3  C3         2.1770   42.8530    0.1290 C.3   232  INH232      0.1770
      4  C4         2.3680   43.8210    1.2700 C.3   232  INH232      0.1800
      5  C5         2.8920   45.1710    0.7590 C.3   232  INH232      0.1790
      6  O4         4.1140   44.9790    0.0130 O.3   232  INH232     -0.3490
      7  N1         3.2740   41.8490   -1.7900 N.am  232  INH232     -0.3490
      8  C7         4.1030   40.8700   -2.1220 C.2   232  INH232      0.2140
      9  O6         3.9190   40.1530   -3.1050 O.2   232  INH232     -0.2740
     10  C8         5.2790   40.6870   -1.1700 C.3   232  INH232      0.1170
     11  H14        2.4640   42.0010   -2.3550 H     232  INH232      0.1630
     12  O1         3.1410   44.6010   -2.0860 O.3   232  INH232     -0.3690
     13  H15        3.2150   44.0730   -2.8720 H     232  INH232      0.2120
     14  O2         1.7760   41.5920    0.6470 O.3   232  INH232     -0.3910
     15  H1         2.5420   41.0470    0.7850 H     232  INH232      0.2100
     16  O3         1.1350   44.0000    1.9400 O.3   232  INH232     -0.3900
     17  H2         1.2660   43.9010    2.8760 H     232  INH232      0.2100
     18  C6         3.2060   46.1130    1.9170 C.3   232  INH232      0.1980
     19  O5         3.7270   45.4180    3.0390 O.3   232  INH232     -0.3980
     20  H3         4.4370   45.9210    3.4220 H     232  INH232      0.2090
@<TRIPOS>BOND
     1     9     8    2
     2    13    12    1
     3    11     7    1
     4     8     7   am
     5     8    10    1
     6    12     1    1
     7     7     2    1
     8     1     2    1
     9     1     6    1
    10     2     3    1
    11     6     5    1
    12     3    14    1
    13     3     4    1
    14    14    15    1
    15     5     4    1
    16     5    18    1
    17     4    16    1
    18    18    19    1
    19    16    17    1
    20    19    20    1
