@<TRIPOS>MOLECULE
/tmp/ewbell/vina_1rdn_1rdn_lig/vina/vina2.pdbqt
 20 20 0 0 0
SMALL
GASTEIGER

@<TRIPOS>ATOM
      1  C1        -3.9540   38.4620    9.9470 C.3   232  INH232      0.2820
      2  C2        -4.3390   39.9190    9.6300 C.3   232  INH232      0.1700
      3  C3        -3.4000   40.8860   10.3520 C.3   232  INH232      0.1770
      4  C4        -3.4080   40.5810   11.8300 C.3   232  INH232      0.1800
      5  C5        -3.0390   39.1120   12.0860 C.3   232  INH232      0.1790
      6  O4        -3.9330   38.2420   11.3580 O.3   232  INH232     -0.3490
      7  N1        -4.2560   40.1600    8.2000 N.am  232  INH232     -0.3490
      8  C7        -5.3060   40.4920    7.4640 C.2   232  INH232      0.2140
      9  O6        -5.2300   40.6810    6.2510 O.2   232  INH232     -0.2740
     10  C8        -6.6030   40.6500    8.2480 C.3   232  INH232      0.1170
     11  H14       -3.3670   40.0710    7.7510 H     232  INH232      0.1630
     12  O1        -2.7210   38.1610    9.3520 O.3   232  INH232     -0.3690
     13  H15       -2.3360   38.9560    9.0030 H     232  INH232      0.2120
     14  O2        -3.8290   42.2260   10.1490 O.3   232  INH232     -0.3910
     15  H1        -4.0010   42.6350   10.9900 H     232  INH232      0.2100
     16  O3        -2.4900   41.4340   12.4870 O.3   232  INH232     -0.3900
     17  H2        -2.9540   41.9720   13.1170 H     232  INH232      0.2100
     18  C6        -3.1660   38.7630   13.5660 C.3   232  INH232      0.1980
     19  O5        -2.2600   39.5070   14.3650 O.3   232  INH232     -0.3980
     20  H3        -1.6230   39.9370   13.8070 H     232  INH232      0.2090
@<TRIPOS>BOND
     1     9     8    2
     2     8     7   am
     3     8    10    1
     4    11     7    1
     5     7     2    1
     6    13    12    1
     7    12     1    1
     8     2     1    1
     9     2     3    1
    10     1     6    1
    11    14     3    1
    12    14    15    1
    13     3     4    1
    14     6     5    1
    15     4     5    1
    16     4    16    1
    17     5    18    1
    18    16    17    1
    19    18    19    1
    20    20    19    1
