@<TRIPOS>MOLECULE
/tmp/ewbell/vina_1rdn_1rdn_lig/vina/vina5.pdbqt
 20 20 0 0 0
SMALL
GASTEIGER

@<TRIPOS>ATOM
      1  C1         3.3140   47.7970   -0.2970 C.3   232  INH232      0.2820
      2  C2         3.9150   48.1390    1.0800 C.3   232  INH232      0.1700
      3  C3         4.2620   46.8590    1.8400 C.3   232  INH232      0.1770
      4  C4         3.0370   45.9830    1.9310 C.3   232  INH232      0.1800
      5  C5         2.4680   45.6920    0.5340 C.3   232  INH232      0.1790
      6  O4         2.1880   46.9320   -0.1540 O.3   232  INH232     -0.3490
      7  N1         5.1200   48.9340    0.9180 N.am  232  INH232     -0.3490
      8  C7         5.1350   50.2520    1.0450 C.2   232  INH232      0.2140
      9  O6         6.1570   50.9190    0.8930 O.2   232  INH232     -0.2740
     10  C8         3.7930   50.8660    1.4250 C.3   232  INH232      0.1170
     11  H14        5.9760   48.4650    0.7010 H     232  INH232      0.1630
     12  O1         4.3040   47.2380   -1.1160 O.3   232  INH232     -0.3690
     13  H15        4.7580   46.5520   -0.6410 H     232  INH232      0.2120
     14  O2         4.7080   47.1760    3.1520 O.3   232  INH232     -0.3910
     15  H1         4.8410   48.1150    3.2230 H     232  INH232      0.2100
     16  O3         3.3760   44.7720    2.5780 O.3   232  INH232     -0.3900
     17  H2         2.6360   44.1770    2.5460 H     232  INH232      0.2100
     18  C6         1.1600   44.9130    0.6240 C.3   232  INH232      0.1980
     19  O5         0.6130   44.9450    1.9320 O.3   232  INH232     -0.3980
     20  H3        -0.3300   44.8400    1.8850 H     232  INH232      0.2090
@<TRIPOS>BOND
     1    12    13    1
     2    12     1    1
     3     1     6    1
     4     1     2    1
     5     6     5    1
     6     5    18    1
     7     5     4    1
     8    18    19    1
     9    11     7    1
    10     9     8    2
    11     7     8   am
    12     7     2    1
    13     8    10    1
    14     2     3    1
    15     3     4    1
    16     3    14    1
    17    20    19    1
    18     4    16    1
    19    17    16    1
    20    14    15    1
