@<TRIPOS>MOLECULE
/tmp/ewbell/vina_1rdn_1rdn_lig/vina/vina1.pdbqt
 20 20 0 0 0
SMALL
GASTEIGER

@<TRIPOS>ATOM
      1  C1         1.5990   46.6860    0.4410 C.3   232  INH232      0.2820
      2  C2         2.1920   45.4700    1.1770 C.3   232  INH232      0.1700
      3  C3         3.0170   45.9270    2.3810 C.3   232  INH232      0.1770
      4  C4         4.0660   46.9090    1.9220 C.3   232  INH232      0.1800
      5  C5         3.4230   48.0890    1.1780 C.3   232  INH232      0.1790
      6  O4         2.6300   47.6030    0.0720 O.3   232  INH232     -0.3490
      7  N1         1.1270   44.5960    1.6390 N.am  232  INH232     -0.3490
      8  C7         1.0420   43.3200    1.2910 C.2   232  INH232      0.2140
      9  O6         0.1300   42.5900    1.6760 O.2   232  INH232     -0.2740
     10  C8         2.1800   42.8290    0.4060 C.3   232  INH232      0.1170
     11  H14        0.4280   44.9730    2.2460 H     232  INH232      0.1630
     12  O1         0.6220   47.2920    1.2440 O.3   232  INH232     -0.3690
     13  H15        0.2650   46.6500    1.8460 H     232  INH232      0.2120
     14  O2         3.6540   44.8110    2.9870 O.3   232  INH232     -0.3910
     15  H1         3.1170   44.0360    2.8680 H     232  INH232      0.2100
     16  O3         4.7860   47.3800    3.0460 O.3   232  INH232     -0.3900
     17  H2         4.2700   48.0360    3.5010 H     232  INH232      0.2100
     18  C6         4.4840   49.0220    0.6040 C.3   232  INH232      0.1980
     19  O5         5.2300   49.6670    1.6240 O.3   232  INH232     -0.3980
     20  H3         5.5960   49.0150    2.2100 H     232  INH232      0.2090
@<TRIPOS>BOND
     1     6     1    1
     2     6     5    1
     3    10     8    1
     4     1     2    1
     5     1    12    1
     6    18     5    1
     7    18    19    1
     8     2     7    1
     9     2     3    1
    10     5     4    1
    11    12    13    1
    12     8     7   am
    13     8     9    2
    14    19    20    1
    15     7    11    1
    16     4     3    1
    17     4    16    1
    18     3    14    1
    19    15    14    1
    20    16    17    1
