@<TRIPOS>MOLECULE
/tmp/ewbell/vina_1rdn_1rdn_lig/vina/vina3.pdbqt
 20 20 0 0 0
SMALL
GASTEIGER

@<TRIPOS>ATOM
      1  C1        15.2390   49.6280    9.0190 C.3   232  INH232      0.2820
      2  C2        15.3380   50.1450    7.5720 C.3   232  INH232      0.1700
      3  C3        15.7060   49.0030    6.6230 C.3   232  INH232      0.1770
      4  C4        16.9750   48.3440    7.1030 C.3   232  INH232      0.1800
      5  C5        16.8280   47.8680    8.5560 C.3   232  INH232      0.1790
      6  O4        16.4490   48.9750    9.4040 O.3   232  INH232     -0.3490
      7  N1        14.0680   50.7150    7.1550 N.am  232  INH232     -0.3490
      8  C7        13.8030   52.0110    7.2270 C.2   232  INH232      0.2140
      9  O6        12.7200   52.4840    6.8850 O.2   232  INH232     -0.2740
     10  C8        14.9570   52.8650    7.7380 C.3   232  INH232      0.1170
     11  H14       13.3640   50.1020    6.7970 H     232  INH232      0.1630
     12  O1        14.1270   48.7850    9.1430 O.3   232  INH232     -0.3690
     13  H15       13.3390   49.2650    8.9170 H     232  INH232      0.2120
     14  O2        15.9080   49.5060    5.3090 O.3   232  INH232     -0.3910
     15  H1        16.6700   49.0890    4.9250 H     232  INH232      0.2100
     16  O3        17.2770   47.2480    6.2620 O.3   232  INH232     -0.3900
     17  H2        17.7610   47.5540    5.5040 H     232  INH232      0.2100
     18  C6        18.1450   47.3130    9.0900 C.3   232  INH232      0.1980
     19  O5        18.3910   45.9960    8.6260 O.3   232  INH232     -0.3980
     20  H3        18.6800   46.0260    7.7210 H     232  INH232      0.2090
@<TRIPOS>BOND
     1    15    14    1
     2    14     3    1
     3    17    16    1
     4    16     4    1
     5     3     4    1
     6     3     2    1
     7    11     7    1
     8     9     8    2
     9     4     5    1
    10     7     8   am
    11     7     2    1
    12     8    10    1
    13     2     1    1
    14    20    19    1
    15     5    18    1
    16     5     6    1
    17    19    18    1
    18    13    12    1
    19     1    12    1
    20     1     6    1
