@<TRIPOS>MOLECULE
./ligand/1urg_lig.pdb
 45 46 0 0 0
SMALL
GASTEIGER

@<TRIPOS>ATOM
      1  C1       -34.5870   -0.0020   41.6420 C.3   376  INH376      0.1884
      2  C2       -35.1750   -0.9660   42.6760 C.3   376  INH376      0.1341
      3  C3       -35.9110   -2.0900   41.9280 C.3   376  INH376      0.1141
      4  C4       -36.9940   -1.4960   41.0210 C.3   376  INH376      0.1119
      5  C5       -36.3750   -0.4520   40.0820 C.3   376  INH376      0.1130
      6  C6       -37.4080    0.2940   39.2580 C.3   376  INH376      0.0730
      7  O1       -33.6660   -0.7020   40.8590 O.3   376  INH376     -0.3401
      8  O2       -34.1280   -1.5140   43.4690 O.3   376  INH376     -0.3841
      9  O3       -36.4900   -3.0050   42.8430 O.3   376  INH376     -0.3864
     10  O4       -37.5900   -2.5310   40.2520 O.3   376  INH376     -0.3865
     11  O5       -35.6420    0.5390   40.8440 O.3   376  INH376     -0.3405
     12  O6       -36.7770    1.0580   38.2410 O.3   376  INH376     -0.3924
     13  C7       -29.7960   -0.3900   39.4060 C.3   376  INH376      0.1854
     14  C8       -29.9220   -0.4040   40.9290 C.3   376  INH376      0.1339
     15  C9       -31.3100   -0.9020   41.3240 C.3   376  INH376      0.1144
     16  C10      -32.3970   -0.0820   40.6280 C.3   376  INH376      0.1184
     17  C11      -32.1570   -0.0070   39.1130 C.3   376  INH376      0.1134
     18  C12      -33.1050    0.9870   38.4620 C.3   376  INH376      0.0730
     19  O7       -29.9460   -1.6770   38.9160 O.3   376  INH376     -0.3649
     20  O8       -28.9350   -1.2630   41.4760 O.3   376  INH376     -0.3841
     21  O9       -31.4810   -0.8170   42.7300 O.3   376  INH376     -0.3864
     22  O10      -30.8140    0.4450   38.8290 O.3   376  INH376     -0.3407
     23  O11      -33.0440    0.9060   37.0470 O.3   376  INH376     -0.3924
     24  H1       -34.0710    0.8210   42.1580 H     376  INH376      0.0938
     25  H2       -35.8820   -0.4280   43.3250 H     376  INH376      0.0671
     26  H3       -35.1850   -2.6310   41.3040 H     376  INH376      0.0648
     27  H4       -37.7640   -1.0150   41.6420 H     376  INH376      0.0647
     28  H5       -35.6850   -0.9710   39.4000 H     376  INH376      0.0647
     29  H6       -37.9780    0.9670   39.9150 H     376  INH376      0.0584
     30  H7       -38.0930   -0.4310   38.7940 H     376  INH376      0.0584
     31  H8       -33.6790   -0.8140   43.9280 H     376  INH376      0.2101
     32  H9       -35.8120   -3.3680   43.4000 H     376  INH376      0.2100
     33  H10      -37.9730   -3.1770   40.8340 H     376  INH376      0.2100
     34  H11      -37.4370    1.5180   37.7350 H     376  INH376      0.2095
     35  H12      -28.8050   -0.0030   39.1280 H     376  INH376      0.0935
     36  H13      -29.7760    0.6150   41.3170 H     376  INH376      0.0671
     37  H14      -31.4070   -1.9540   41.0160 H     376  INH376      0.0648
     38  H15      -32.4020    0.9360   41.0440 H     376  INH376      0.0651
     39  H16      -32.3120   -1.0050   38.6780 H     376  INH376      0.0647
     40  H17      -32.8280    2.0040   38.7750 H     376  INH376      0.0584
     41  H18      -34.1320    0.7700   38.7890 H     376  INH376      0.0584
     42  H19      -29.8670   -1.6660   37.9690 H     376  INH376      0.2126
     43  H20      -28.0720   -0.9510   41.2290 H     376  INH376      0.2101
     44  H21      -30.8060   -1.3260   43.1620 H     376  INH376      0.2100
     45  H22      -32.1590    1.0930   36.7570 H     376  INH376      0.2095
@<TRIPOS>BOND
     1     1     7    1
     2     1    24    1
     3     1    11    1
     4     1     2    1
     5     2    25    1
     6     2     8    1
     7     2     3    1
     8     3    26    1
     9     3     9    1
    10     3     4    1
    11     4    27    1
    12     4    10    1
    13     4     5    1
    14     5    28    1
    15     5    11    1
    16     5     6    1
    17     6    30    1
    18     6    29    1
    19     6    12    1
    20     7    16    1
    21     8    31    1
    22     9    32    1
    23    10    33    1
    24    12    34    1
    25    13    35    1
    26    13    22    1
    27    13    19    1
    28    13    14    1
    29    14    36    1
    30    14    20    1
    31    14    15    1
    32    15    37    1
    33    15    21    1
    34    15    16    1
    35    16    38    1
    36    16    17    1
    37    17    39    1
    38    17    22    1
    39    17    18    1
    40    18    41    1
    41    18    40    1
    42    18    23    1
    43    19    42    1
    44    20    43    1
    45    21    44    1
    46    23    45    1
