@<TRIPOS>MOLECULE
/tmp/ewbell/vina_1urg_1urg_lig/vina/vina5.pdbqt
 31 32 0 0 0
SMALL
GASTEIGER

@<TRIPOS>ATOM
      1  O1       -37.2720   -2.1820   39.4930 O.3   376  INH376     -0.3480
      2  C1       -37.3720   -0.8200   39.7860 C.3   376  INH376      0.2920
      3  O5       -36.5850   -0.4760   40.9280 O.3   376  INH376     -0.3480
      4  C5       -35.1780   -0.7950   40.7950 C.3   376  INH376      0.1790
      5  C4       -34.5780   -0.0680   39.5840 C.3   376  INH376      0.1800
      6  C3       -35.4030   -0.3760   38.3290 C.3   376  INH376      0.1830
      7  C2       -36.8810   -0.0260   38.5720 C.3   376  INH376      0.2040
      8  C6       -34.5100   -0.4190   42.1040 C.3   376  INH376      0.1980
      9  O6       -35.3520   -0.7370   43.2020 O.3   376  INH376     -0.3980
     10  H11      -35.1850   -1.6310   43.4820 H     376  INH376      0.2090
     11  O4       -33.2380   -0.4990   39.3880 O.3   376  INH376     -0.3900
     12  H10      -32.8020   -0.5660   40.2300 H     376  INH376      0.2100
     13  O3       -34.8930    0.3480   37.2220 O.3   376  INH376     -0.3900
     14  H9       -35.6130    0.6310   36.6690 H     376  INH376      0.2100
     15  O2       -37.6570   -0.3710   37.4290 O.3   376  INH376     -0.3880
     16  H8       -38.5150    0.0320   37.4960 H     376  INH376      0.2100
     17  C10      -38.4420   -2.9820   39.6860 C.3   376  INH376      0.1870
     18  C9       -38.8200   -3.6400   38.3580 C.3   376  INH376      0.1830
     19  C8       -39.9290   -4.6690   38.5610 C.3   376  INH376      0.2040
     20  C7       -39.5130   -5.6670   39.6400 C.3   376  INH376      0.2880
     21  O10      -39.2310   -4.9810   40.8720 O.3   376  INH376     -0.3490
     22  C11      -38.1440   -4.0330   40.7650 C.3   376  INH376      0.1800
     23  O9       -39.2350   -2.6420   37.4380 O.3   376  INH376     -0.3900
     24  H21      -38.7330   -2.7240   36.6360 H     376  INH376      0.2100
     25  O8       -40.1650   -5.3590   37.3450 O.3   376  INH376     -0.3880
     26  H20      -39.3730   -5.3550   36.8190 H     376  INH376      0.2100
     27  O7       -38.3730   -6.3400   39.2350 O.3   376  INH376     -0.3690
     28  H19      -37.7850   -6.4410   39.9750 H     376  INH376      0.2120
     29  C12      -37.9920   -3.3820   42.1300 C.3   376  INH376      0.1980
     30  O11      -36.6250   -3.2020   42.4660 O.3   376  INH376     -0.3980
     31  H22      -36.2600   -4.0280   42.7610 H     376  INH376      0.2090
@<TRIPOS>BOND
     1    24    23    1
     2    14    13    1
     3    26    25    1
     4    13     6    1
     5    25    19    1
     6    15    16    1
     7    15     7    1
     8    23    18    1
     9     6     7    1
    10     6     5    1
    11    18    19    1
    12    18    17    1
    13    19    20    1
    14     7     2    1
    15    27    20    1
    16    27    28    1
    17    11     5    1
    18    11    12    1
    19     1    17    1
    20     1     2    1
    21     5     4    1
    22    20    21    1
    23    17    22    1
    24     2     3    1
    25    22    21    1
    26    22    29    1
    27     4     3    1
    28     4     8    1
    29     8     9    1
    30    29    30    1
    31    30    31    1
    32     9    10    1
