@<TRIPOS>MOLECULE
/tmp/ewbell/vina_1urg_1urg_lig/vina/vina2.pdbqt
 31 32 0 0 0
SMALL
GASTEIGER

@<TRIPOS>ATOM
      1  O1       -37.9260   -2.7110   39.9550 O.3   376  INH376     -0.3480
      2  C1       -39.2680   -3.0900   40.0320 C.3   376  INH376      0.2920
      3  O5       -39.9580   -2.8060   38.8120 O.3   376  INH376     -0.3480
      4  C5       -39.3850   -3.4460   37.6460 C.3   376  INH376      0.1790
      5  C4       -39.3740   -4.9700   37.8260 C.3   376  INH376      0.1800
      6  C3       -38.6720   -5.3350   39.1390 C.3   376  INH376      0.1830
      7  C2       -39.3320   -4.5940   40.3130 C.3   376  INH376      0.2040
      8  C6       -40.1980   -2.9960   36.4470 C.3   376  INH376      0.1980
      9  O6       -40.5880   -1.6380   36.5910 O.3   376  INH376     -0.3980
     10  H11      -41.3540   -1.4690   36.0530 H     376  INH376      0.2090
     11  O4       -38.6870   -5.5710   36.7370 O.3   376  INH376     -0.3900
     12  H10      -37.8870   -5.9750   37.0530 H     376  INH376      0.2100
     13  O3       -38.7190   -6.7380   39.3420 O.3   376  INH376     -0.3900
     14  H9       -37.8450   -7.1000   39.2550 H     376  INH376      0.2100
     15  O2       -38.6400   -4.8830   41.5230 O.3   376  INH376     -0.3880
     16  H8       -39.2620   -5.1610   42.1850 H     376  INH376      0.2100
     17  C10      -37.4960   -1.6440   40.8060 C.3   376  INH376      0.1870
     18  C9       -36.3750   -2.1530   41.7140 C.3   376  INH376      0.1830
     19  C8       -35.7390   -1.0000   42.4860 C.3   376  INH376      0.2040
     20  C7       -35.2890    0.0850   41.5090 C.3   376  INH376      0.2880
     21  O10      -36.4060    0.5530   40.7340 O.3   376  INH376     -0.3490
     22  C11      -37.0180   -0.4790   39.9280 C.3   376  INH376      0.1800
     23  O9       -36.8970   -3.1200   42.6130 O.3   376  INH376     -0.3900
     24  H21      -36.3320   -3.1790   43.3740 H     376  INH376      0.2100
     25  O8       -34.6180   -1.4760   43.2130 O.3   376  INH376     -0.3880
     26  H20      -34.7610   -2.3830   43.4560 H     376  INH376      0.2100
     27  O7       -34.3360   -0.4310   40.6480 O.3   376  INH376     -0.3690
     28  H19      -34.1330   -1.3250   40.9020 H     376  INH376      0.2120
     29  C12      -38.1860    0.1650   39.1980 C.3   376  INH376      0.1980
     30  O11      -38.3270   -0.3580   37.8870 O.3   376  INH376     -0.3980
     31  H22      -37.7040    0.0650   37.3080 H     376  INH376      0.2090
@<TRIPOS>BOND
     1    10     9    1
     2     8     9    1
     3     8     4    1
     4    11    12    1
     5    11     5    1
     6    31    30    1
     7     4     5    1
     8     4     3    1
     9     5     6    1
    10    30    29    1
    11     3     2    1
    12     6    13    1
    13     6     7    1
    14    29    22    1
    15    14    13    1
    16    22    21    1
    17    22    17    1
    18     1     2    1
    19     1    17    1
    20     2     7    1
    21     7    15    1
    22    27    28    1
    23    27    20    1
    24    21    20    1
    25    17    18    1
    26    20    19    1
    27    15    16    1
    28    18    19    1
    29    18    23    1
    30    19    25    1
    31    23    24    1
    32    25    26    1
