@<TRIPOS>MOLECULE
/tmp/ewbell/vina_1urg_1urg_lig/vina/vina3.pdbqt
 31 32 0 0 0
SMALL
GASTEIGER

@<TRIPOS>ATOM
      1  O1       -36.1600   -1.8320   40.4370 O.3   376  INH376     -0.3480
      2  C1       -37.4680   -1.6940   40.9080 C.3   376  INH376      0.2920
      3  O5       -38.3650   -1.3360   39.8540 O.3   376  INH376     -0.3480
      4  C5       -38.3900   -2.2780   38.7540 C.3   376  INH376      0.1790
      5  C4       -38.7970   -3.6700   39.2540 C.3   376  INH376      0.1800
      6  C3       -37.8870   -4.0960   40.4110 C.3   376  INH376      0.1830
      7  C2       -37.9070   -3.0280   41.5170 C.3   376  INH376      0.2040
      8  C6       -39.3410   -1.7190   37.7120 C.3   376  INH376      0.1980
      9  O6       -40.6010   -2.3700   37.7870 O.3   376  INH376     -0.3980
     10  H11      -40.7300   -2.7110   38.6650 H     376  INH376      0.2090
     11  O4       -38.6850   -4.6070   38.1910 O.3   376  INH376     -0.3900
     12  H10      -38.3180   -4.1760   37.4280 H     376  INH376      0.2100
     13  O3       -38.3030   -5.3520   40.9200 O.3   376  INH376     -0.3900
     14  H9       -37.6880   -6.0240   40.6480 H     376  INH376      0.2100
     15  O2       -37.0130   -3.3940   42.5630 O.3   376  INH376     -0.3880
     16  H8       -36.1170   -3.3210   42.2530 H     376  INH376      0.2100
     17  C10      -35.2490   -0.7620   40.7070 C.3   376  INH376      0.1870
     18  C9       -34.2550   -1.2150   41.7780 C.3   376  INH376      0.1830
     19  C8       -33.1370   -0.1900   41.9440 C.3   376  INH376      0.2040
     20  C7       -32.4900    0.0880   40.5880 C.3   376  INH376      0.2880
     21  O10      -33.4740    0.5640   39.6540 O.3   376  INH376     -0.3490
     22  C11      -34.5320   -0.3880   39.4020 C.3   376  INH376      0.1800
     23  O9       -34.9380   -1.4020   43.0080 O.3   376  INH376     -0.3900
     24  H21      -35.6920   -1.9620   42.8680 H     376  INH376      0.2100
     25  O8       -32.1590   -0.6940   42.8400 O.3   376  INH376     -0.3880
     26  H20      -31.9490   -1.5910   42.6070 H     376  INH376      0.2100
     27  O7       -31.9320   -1.0780   40.0920 O.3   376  INH376     -0.3690
     28  H19      -31.0100   -1.1110   40.3220 H     376  INH376      0.2120
     29  C12      -35.4930    0.2710   38.4250 C.3   376  INH376      0.1980
     30  O11      -36.5030    0.9980   39.1050 O.3   376  INH376     -0.3980
     31  H22      -36.5150    1.8940   38.7910 H     376  INH376      0.2090
@<TRIPOS>BOND
     1    12    11    1
     2     8     9    1
     3     8     4    1
     4     9    10    1
     5    11     5    1
     6    29    30    1
     7    29    22    1
     8     4     5    1
     9     4     3    1
    10    31    30    1
    11     5     6    1
    12    22    21    1
    13    22    17    1
    14    21    20    1
    15     3     2    1
    16    27    28    1
    17    27    20    1
    18     6    13    1
    19     6     7    1
    20     1    17    1
    21     1     2    1
    22    20    19    1
    23    14    13    1
    24    17    18    1
    25     2     7    1
    26     7    15    1
    27    18    19    1
    28    18    23    1
    29    19    25    1
    30    16    15    1
    31    26    25    1
    32    24    23    1
