@<TRIPOS>MOLECULE
/tmp/ewbell/vina_1urg_1urg_lig/vina/vina4.pdbqt
 31 32 0 0 0
SMALL
GASTEIGER

@<TRIPOS>ATOM
      1  O1       -31.5990   -0.4670   39.9490 O.3   376  INH376     -0.3480
      2  C1       -30.4920    0.3350   39.6600 C.3   376  INH376      0.2920
      3  O5       -29.2690   -0.3460   39.9490 O.3   376  INH376     -0.3480
      4  C5       -29.1060   -1.5960   39.2360 C.3   376  INH376      0.1790
      5  C4       -29.1540   -1.3560   37.7210 C.3   376  INH376      0.1800
      6  C3       -30.4350   -0.5980   37.3540 C.3   376  INH376      0.1830
      7  C2       -30.5320    0.6990   38.1730 C.3   376  INH376      0.2040
      8  C6       -27.7950   -2.2050   39.6990 C.3   376  INH376      0.1980
      9  O6       -27.6460   -2.0570   41.1040 O.3   376  INH376     -0.3980
     10  H11      -27.5400   -2.9140   41.5030 H     376  INH376      0.2090
     11  O4       -29.1300   -2.6050   37.0420 O.3   376  INH376     -0.3900
     12  H10      -29.5990   -2.5260   36.2200 H     376  INH376      0.2100
     13  O3       -30.4510   -0.3150   35.9640 O.3   376  INH376     -0.3900
     14  H9       -30.3870   -1.1270   35.4750 H     376  INH376      0.2100
     15  O2       -31.7520    1.3700   37.8780 O.3   376  INH376     -0.3880
     16  H8       -32.4210    1.0960   38.4950 H     376  INH376      0.2100
     17  C10      -32.5440    0.0370   40.8980 C.3   376  INH376      0.1870
     18  C9       -33.9530   -0.1100   40.3220 C.3   376  INH376      0.1830
     19  C8       -35.0050    0.2130   41.3800 C.3   376  INH376      0.2040
     20  C7       -34.7610   -0.6400   42.6240 C.3   376  INH376      0.2880
     21  O10      -33.4400   -0.4050   43.1390 O.3   376  INH376     -0.3490
     22  C11      -32.3910   -0.7510   42.2070 C.3   376  INH376      0.1800
     23  O9       -34.0990    0.7520   39.2040 O.3   376  INH376     -0.3900
     24  H21      -34.0030    0.2500   38.4040 H     376  INH376      0.2100
     25  O8       -36.2980   -0.0610   40.8650 O.3   376  INH376     -0.3880
     26  H20      -36.6560   -0.8260   41.3000 H     376  INH376      0.2100
     27  O7       -34.8790   -1.9800   42.2970 O.3   376  INH376     -0.3690
     28  H19      -34.7490   -2.0900   41.3610 H     376  INH376      0.2120
     29  C12      -31.0710   -0.4220   42.8870 C.3   376  INH376      0.1980
     30  O11      -30.0680   -1.3670   42.5510 O.3   376  INH376     -0.3980
     31  H22      -29.5060   -1.0060   41.8760 H     376  INH376      0.2090
@<TRIPOS>BOND
     1    14    13    1
     2    13     6    1
     3    12    11    1
     4    11     5    1
     5     6     5    1
     6     6     7    1
     7     5     4    1
     8    15     7    1
     9    15    16    1
    10     7     2    1
    11    24    23    1
    12    23    18    1
    13     4     8    1
    14     4     3    1
    15     2     1    1
    16     2     3    1
    17     8     9    1
    18     1    17    1
    19    18    17    1
    20    18    19    1
    21    25    26    1
    22    25    19    1
    23    17    22    1
    24     9    10    1
    25    28    27    1
    26    19    20    1
    27    31    30    1
    28    22    29    1
    29    22    21    1
    30    27    20    1
    31    30    29    1
    32    20    21    1
