@<TRIPOS>MOLECULE
/tmp/ewbell/vina_1urg_1urg_lig/vina/vina1.pdbqt
 31 32 0 0 0
SMALL
GASTEIGER

@<TRIPOS>ATOM
      1  O1       -34.1050   -0.5130   40.7240 O.3   376  INH376     -0.3480
      2  C1       -35.1100    0.0970   41.4790 C.3   376  INH376      0.2920
      3  O5       -36.1820    0.5480   40.6480 O.3   376  INH376     -0.3480
      4  C5       -36.7990   -0.4990   39.8590 C.3   376  INH376      0.1790
      5  C4       -37.3540   -1.5990   40.7740 C.3   376  INH376      0.1800
      6  C3       -36.2520   -2.1020   41.7130 C.3   376  INH376      0.1830
      7  C2       -35.6430   -0.9220   42.4890 C.3   376  INH376      0.2040
      8  C6       -37.8670    0.1580   39.0050 C.3   376  INH376      0.1980
      9  O6       -37.2750    0.8860   37.9400 O.3   376  INH376     -0.3980
     10  H11      -37.3230    0.3750   37.1400 H     376  INH376      0.2090
     11  O4       -37.8300   -2.6790   39.9820 O.3   376  INH376     -0.3900
     12  H10      -38.6620   -2.4390   39.5890 H     376  INH376      0.2100
     13  O3       -36.7770   -3.0700   42.6060 O.3   376  INH376     -0.3900
     14  H9       -36.2800   -3.0570   43.4160 H     376  INH376      0.2100
     15  O2       -34.5770   -1.3800   43.3150 O.3   376  INH376     -0.3880
     16  H8       -34.4230   -2.3030   43.1480 H     376  INH376      0.2100
     17  C10      -32.8590    0.1800   40.6080 C.3   376  INH376      0.1870
     18  C9       -31.7780   -0.6150   41.3430 C.3   376  INH376      0.1830
     19  C8       -30.3960   -0.0300   41.0670 C.3   376  INH376      0.2040
     20  C7       -30.1690    0.0600   39.5580 C.3   376  INH376      0.2880
     21  O10      -31.1890    0.8690   38.9480 O.3   376  INH376     -0.3490
     22  C11      -32.5220    0.3370   39.1180 C.3   376  INH376      0.1800
     23  O9       -32.0490   -0.6040   42.7360 O.3   376  INH376     -0.3900
     24  H21      -32.9050   -0.2240   42.8880 H     376  INH376      0.2100
     25  O8       -29.4030   -0.8630   41.6450 O.3   376  INH376     -0.3880
     26  H20      -29.0030   -1.3960   40.9670 H     376  INH376      0.2100
     27  O7       -30.2160   -1.2080   39.0050 O.3   376  INH376     -0.3690
     28  H19      -31.0650   -1.3440   38.5990 H     376  INH376      0.2120
     29  C12      -33.4750    1.3110   38.4460 C.3   376  INH376      0.1980
     30  O11      -34.5580    0.6320   37.8300 O.3   376  INH376     -0.3980
     31  H22      -34.2210   -0.0430   37.2530 H     376  INH376      0.2090
@<TRIPOS>BOND
     1    10     9    1
     2    31    30    1
     3    30    29    1
     4     9     8    1
     5    29    22    1
     6    28    27    1
     7    21    22    1
     8    21    20    1
     9    27    20    1
    10     8     4    1
    11    22    17    1
    12    20    19    1
    13    12    11    1
    14     4     3    1
    15     4     5    1
    16    11     5    1
    17    17     1    1
    18    17    18    1
    19     3     2    1
    20     1     2    1
    21     5     6    1
    22    26    25    1
    23    19    18    1
    24    19    25    1
    25    18    23    1
    26     2     7    1
    27     6     7    1
    28     6    13    1
    29     7    15    1
    30    13    14    1
    31    23    24    1
    32    16    15    1
