@<TRIPOS>MOLECULE
./ligand/2pou_lig.pdb
 21 21 0 0 0
SMALL
GASTEIGER

@<TRIPOS>ATOM
      1  S1        -3.8520    2.1690   11.9070 S.O2  262  INH262      0.0561
      2  O1        -4.5040    2.9300   10.8880 O.2   262  INH262     -0.1533
      3  O2        -3.8880    0.7430   11.8550 O.2   262  INH262     -0.1533
      4  N1        -2.3410    2.6200   11.9690 N.3   262  INH262     -0.2035
      5  S2        -5.9440    0.7900   16.7620 S.O2  262  INH262      0.0738
      6  O3        -5.2420    1.1140   17.9710 O.2   262  INH262     -0.1518
      7  O4        -7.3690    0.7690   16.7720 O.2   262  INH262     -0.1518
      8  N2        -5.4090   -0.5950   16.2520 N.3   262  INH262     -0.1052
      9  C1        -4.5900    2.6530   13.4350 C.ar  262  INH262      0.1083
     10  C2        -4.9290    1.6710   14.3820 C.ar  262  INH262     -0.0074
     11  C3        -5.5260    2.0580   15.5950 C.ar  262  INH262      0.1281
     12  C4        -5.7820    3.4210   15.8600 C.ar  262  INH262      0.0857
     13  C5        -5.4310    4.3870   14.9070 C.ar  262  INH262      0.0630
     14  C6        -4.8370    4.0240   13.6910 C.ar  262  INH262     -0.0155
     15 Cl1        -6.5140    3.9040   17.3140 Cl    262  INH262     -0.0800
     16 Cl2        -5.7340    6.0460   15.2320 Cl    262  INH262     -0.0819
     17  H1        -2.1110    3.5920   12.0110 H     262  INH262      0.1442
     18  H2        -1.6140    1.9340   11.9670 H     262  INH262      0.1442
     19  H3        -5.4960   -1.4090   16.8280 H     262  INH262      0.1694
     20  H4        -4.7320    0.6250   14.1790 H     262  INH262      0.0657
     21  H5        -4.5710    4.7790   12.9600 H     262  INH262      0.0652
@<TRIPOS>BOND
     1     1     9    1
     2     1     4    1
     3     1     3    2
     4     1     2    2
     5     4    18    1
     6     4    17    1
     7     5    11    1
     8     5     8    1
     9     5     7    2
    10     5     6    2
    11     8    19    1
    12     9    14   ar
    13     9    10   ar
    14    10    20    1
    15    10    11   ar
    16    11    12   ar
    17    12    15    1
    18    12    13   ar
    19    13    16    1
    20    13    14   ar
    21    14    21    1
