@<TRIPOS>MOLECULE
/tmp/ewbell/vina_2pou_2pou_lig/vina/vina5.pdbqt
 20 20 0 0 0
SMALL
GASTEIGER

@<TRIPOS>ATOM
      1  C1        -4.6270    1.6240   13.5050 C.ar  262  INH262      0.0820
      2  C2        -4.9150    2.9930   13.3690 C.ar  262  INH262      0.0520
      3  C3        -5.4250    3.7040   14.4700 C.ar  262  INH262      0.0990
      4  C4        -5.6470    3.0480   15.7000 C.ar  262  INH262      0.0780
      5  C5        -5.3610    1.6810   15.8150 C.ar  262  INH262      0.0580
      6  C6        -4.8510    0.9530   14.7320 C.ar  262  INH262      0.0500
      7 Cl1        -6.2510    3.8950   17.0430 Cl    262  INH262     -0.0810
      8 Cl2        -5.6390    0.8810   17.3090 Cl    262  INH262     -0.0820
      9  S1        -3.9760    0.7320   12.1290 S.O2  262  INH262      0.2560
     10  O2        -2.6550    1.2230   11.8960 O.2   262  INH262     -0.2010
     11  O1        -4.1740   -0.6530   12.4180 O.2   262  INH262     -0.2010
     12  N1        -4.8650    1.1070   10.8810 N.3   262  INH262     -0.3240
     13  H2        -5.7810    0.7200   10.7850 H     262  INH262      0.1690
     14  H1        -4.5110    1.7320   10.1850 H     262  INH262      0.1690
     15  S2        -5.7710    5.4310   14.2610 S.O2  262  INH262      0.2410
     16  O4        -5.5510    5.9980   15.5510 O.2   262  INH262     -0.2060
     17  O3        -7.0800    5.5080   13.6790 O.2   262  INH262     -0.2060
     18  N2        -4.7530    6.0530   13.2410 N.3   262  INH262     -0.2250
     19  H3        -4.6640    5.6670   12.3220 H     262  INH262      0.1360
     20  H         -3.8310    5.9980   13.6740 H     262  INH262      0.1360
@<TRIPOS>BOND
     1    14    12    1
     2    13    12    1
     3    12     9    1
     4    10     9    2
     5     9    11    2
     6     9     1    1
     7    19    18    1
     8    18    20    1
     9    18    15    1
    10     2     1   ar
    11     2     3   ar
    12     1     6   ar
    13    17    15    2
    14    15     3    1
    15    15    16    2
    16     3     4   ar
    17     6     5   ar
    18     4     5   ar
    19     4     7    1
    20     5     8    1
