@<TRIPOS>MOLECULE
/tmp/ewbell/vina_2pou_2pou_lig/vina/vina2.pdbqt
 20 20 0 0 0
SMALL
GASTEIGER

@<TRIPOS>ATOM
      1  C1        -5.5300    2.1720   15.8220 C.ar  262  INH262      0.0820
      2  C2        -5.0890    1.5010   14.6680 C.ar  262  INH262      0.0520
      3  C3        -4.6100    2.2460   13.5760 C.ar  262  INH262      0.0990
      4  C4        -4.5740    3.6570   13.6380 C.ar  262  INH262      0.0780
      5  C5        -5.0240    4.3090   14.7940 C.ar  262  INH262      0.0580
      6  C6        -5.5030    3.5860   15.8940 C.ar  262  INH262      0.0500
      7 Cl1        -3.9870    4.5710   12.3330 Cl    262  INH262     -0.0810
      8 Cl2        -4.9880    6.0240   14.8660 Cl    262  INH262     -0.0820
      9  S1        -6.1190    1.2380   17.1990 S.O2  262  INH262      0.2560
     10  O2        -7.4750    0.8870   16.9200 O.2   262  INH262     -0.2010
     11  O1        -5.1550    0.2090   17.4270 O.2   262  INH262     -0.2010
     12  N1        -6.1090    2.2070   18.4430 N.3   262  INH262     -0.3240
     13  H2        -6.8520    2.1720   19.1100 H     262  INH262      0.1690
     14  H1        -5.3600    2.8580   18.5640 H     262  INH262      0.1690
     15  S2        -4.0580    1.3640   12.1400 S.O2  262  INH262      0.2410
     16  O4        -4.3810    0.0020   12.4110 O.2   262  INH262     -0.2060
     17  O3        -2.6840    1.7320   11.9510 O.2   262  INH262     -0.2060
     18  N2        -4.8620    1.8470   10.8820 N.3   262  INH262     -0.2250
     19  H3        -5.8090    1.5490   10.7470 H     262  INH262      0.1360
     20  H         -4.3380    1.5410   10.0620 H     262  INH262      0.1360
@<TRIPOS>BOND
     1    20    18    1
     2    19    18    1
     3    18    15    1
     4    17    15    2
     5    15    16    2
     6    15     3    1
     7     7     4    1
     8     3     4   ar
     9     3     2   ar
    10     4     5   ar
    11     2     1   ar
    12     5     8    1
    13     5     6   ar
    14     1     6   ar
    15     1     9    1
    16    10     9    2
    17     9    11    2
    18     9    12    1
    19    12    14    1
    20    12    13    1
