@<TRIPOS>MOLECULE
/tmp/ewbell/vina_2pou_2pou_lig/vina/vina3.pdbqt
 20 20 0 0 0
SMALL
GASTEIGER

@<TRIPOS>ATOM
      1  C1        -4.5360    2.6170   13.4430 C.ar  262  INH262      0.0820
      2  C2        -4.8230    1.6570   14.4290 C.ar  262  INH262      0.0520
      3  C3        -5.4440    2.0610   15.6250 C.ar  262  INH262      0.0990
      4  C4        -5.7740    3.4180   15.8340 C.ar  262  INH262      0.0780
      5  C5        -5.4730    4.3610   14.8420 C.ar  262  INH262      0.0580
      6  C6        -4.8570    3.9820   13.6420 C.ar  262  INH262      0.0500
      7 Cl1        -6.5350    3.9190   17.2660 Cl    262  INH262     -0.0810
      8 Cl2        -5.8670    6.0140   15.0990 Cl    262  INH262     -0.0820
      9  S1        -3.7680    2.1110   11.9370 S.O2  262  INH262      0.2560
     10  O2        -3.6500    0.6890   11.9800 O.2   262  INH262     -0.2010
     11  O1        -4.5110    2.7270   10.8830 O.2   262  INH262     -0.2010
     12  N1        -2.3140    2.7240   11.9390 N.3   262  INH262     -0.3240
     13  H2        -1.5230    2.1340   12.0880 H     262  INH262      0.1690
     14  H1        -2.1850    3.7050   11.7910 H     262  INH262      0.1690
     15  S2        -5.7960    0.8210   16.8430 S.O2  262  INH262      0.2410
     16  O4        -5.2370    1.3360   18.0490 O.2   262  INH262     -0.2060
     17  O3        -5.2930   -0.4140   16.3120 O.2   262  INH262     -0.2060
     18  N2        -7.3490    0.6740   17.0130 N.3   262  INH262     -0.2250
     19  H3        -7.8620    1.3510   17.5440 H     262  INH262      0.1360
     20  H         -7.5120   -0.2310   17.4560 H     262  INH262      0.1360
@<TRIPOS>BOND
     1    11     9    2
     2    14    12    1
     3     9    12    1
     4     9    10    2
     5     9     1    1
     6    12    13    1
     7     1     6   ar
     8     1     2   ar
     9     6     5   ar
    10     2     3   ar
    11     5     8    1
    12     5     4   ar
    13     3     4   ar
    14     3    15    1
    15     4     7    1
    16    17    15    2
    17    15    18    1
    18    15    16    2
    19    18    20    1
    20    18    19    1
