@<TRIPOS>MOLECULE
/tmp/ewbell/vina_2pou_2pou_lig/vina/vina4.pdbqt
 20 20 0 0 0
SMALL
GASTEIGER

@<TRIPOS>ATOM
      1  C1        -4.7220    2.2820   14.7080 C.ar  262  INH262      0.0820
      2  C2        -4.2830    2.3740   13.3760 C.ar  262  INH262      0.0520
      3  C3        -4.3600    3.6090   12.7070 C.ar  262  INH262      0.0990
      4  C4        -4.8740    4.7460   13.3670 C.ar  262  INH262      0.0780
      5  C5        -5.3140    4.6340   14.6930 C.ar  262  INH262      0.0580
      6  C6        -5.2450    3.4140   15.3800 C.ar  262  INH262      0.0500
      7 Cl1        -4.9620    6.2470   12.5780 Cl    262  INH262     -0.0810
      8 Cl2        -5.9480    6.0150   15.4950 Cl    262  INH262     -0.0820
      9  S1        -4.6150    0.7370   15.5530 S.O2  262  INH262      0.2560
     10  O2        -4.7090   -0.2910   14.5660 O.2   262  INH262     -0.2010
     11  O1        -3.4560    0.8150   16.3850 O.2   262  INH262     -0.2010
     12  N1        -5.8850    0.6400   16.4850 N.3   262  INH262     -0.3240
     13  H2        -6.7600    0.3410   16.1080 H     262  INH262      0.1690
     14  H1        -5.8130    0.8780   17.4530 H     262  INH262      0.1690
     15  S2        -3.7920    3.6870   11.0290 S.O2  262  INH262      0.2410
     16  O4        -2.4520    4.1640   11.1270 O.2   262  INH262     -0.2060
     17  O3        -4.7610    4.4690   10.3150 O.2   262  INH262     -0.2060
     18  N2        -3.7840    2.2460   10.4060 N.3   262  INH262     -0.2250
     19  H3        -4.5330    1.9530    9.8100 H     262  INH262      0.1360
     20  H         -3.7550    1.5890   11.1860 H     262  INH262      0.1360
@<TRIPOS>BOND
     1    19    18    1
     2    17    15    2
     3    18    15    1
     4    18    20    1
     5    15    16    2
     6    15     3    1
     7     7     4    1
     8     3     4   ar
     9     3     2   ar
    10     4     5   ar
    11     2     1   ar
    12    10     9    2
    13     5     6   ar
    14     5     8    1
    15     1     6   ar
    16     1     9    1
    17     9    11    2
    18     9    12    1
    19    13    12    1
    20    12    14    1
