@<TRIPOS>MOLECULE
/tmp/ewbell/vina_2pou_2pou_lig/vina/vina1.pdbqt
 20 20 0 0 0
SMALL
GASTEIGER

@<TRIPOS>ATOM
      1  C1        -4.6810    2.4550   13.4460 C.ar  262  INH262      0.0820
      2  C2        -5.0360    1.5260   14.4390 C.ar  262  INH262      0.0520
      3  C3        -5.5900    1.9830   15.6480 C.ar  262  INH262      0.0990
      4  C4        -5.7860    3.3650   15.8630 C.ar  262  INH262      0.0780
      5  C5        -5.4200    4.2780   14.8650 C.ar  262  INH262      0.0580
      6  C6        -4.8690    3.8440   13.6520 C.ar  262  INH262      0.0500
      7 Cl1        -6.4660    3.9330   17.3120 Cl    262  INH262     -0.0810
      8 Cl2        -5.6510    5.9590   15.1300 Cl    262  INH262     -0.0820
      9  S1        -3.9980    1.8830   11.9230 S.O2  262  INH262      0.2560
     10  O2        -4.6550    2.5930   10.8730 O.2   262  INH262     -0.2010
     11  O1        -2.5790    1.9770   12.0610 O.2   262  INH262     -0.2010
     12  N1        -4.3810    0.3570   11.7980 N.3   262  INH262     -0.3240
     13  H2        -4.4740   -0.0620   10.8960 H     262  INH262      0.1690
     14  H1        -4.5310   -0.1890   12.6220 H     262  INH262      0.1690
     15  S2        -6.0290    0.7800   16.8740 S.O2  262  INH262      0.2410
     16  O4        -5.3860   -0.4180   16.4460 O.2   262  INH262     -0.2060
     17  O3        -7.4610    0.8080   16.9650 O.2   262  INH262     -0.2060
     18  N2        -5.4500    1.2090   18.2680 N.3   262  INH262     -0.2250
     19  H3        -5.2760    2.1760   18.4620 H     262  INH262      0.1360
     20  H         -4.5610    0.7230   18.3790 H     262  INH262      0.1360
@<TRIPOS>BOND
     1    10     9    2
     2    13    12    1
     3    12     9    1
     4    12    14    1
     5     9    11    2
     6     9     1    1
     7     1     6   ar
     8     1     2   ar
     9     6     5   ar
    10     2     3   ar
    11     5     8    1
    12     5     4   ar
    13     3     4   ar
    14     3    15    1
    15     4     7    1
    16    16    15    2
    17    15    17    2
    18    15    18    1
    19    18    20    1
    20    18    19    1
