@<TRIPOS>MOLECULE
./ligand/1d4j_lig.pdb
 83 87 0 0 0
SMALL
GASTEIGER

@<TRIPOS>ATOM
      1  C1        13.7860   23.1580    4.9980 C.3   203  INH203      0.1185
      2  O1        14.3350   22.9260    3.6740 O.3   203  INH203     -0.3861
      3  C2        14.7900   22.7960    6.0680 C.3   203  INH203      0.1628
      4  O2        14.2510   23.0570    7.3900 O.3   203  INH203     -0.3601
      5  C3        15.2630   23.5020    8.3230 C.3   203  INH203      0.0738
      6  C4        16.1900   22.3940    8.8110 C.ar  203  INH203     -0.0219
      7  C5        15.6450   21.2450    9.5150 C.ar  203  INH203     -0.0564
      8  C6        16.5100   20.1500    9.8810 C.ar  203  INH203     -0.0614
      9  C7        17.9120   20.2020    9.5550 C.ar  203  INH203     -0.0617
     10  C8        18.4580   21.3460    8.8680 C.ar  203  INH203     -0.0614
     11  C9        17.6020   22.4390    8.4980 C.ar  203  INH203     -0.0564
     12  C10       15.0120   21.3170    5.9040 C.2   203  INH203      0.2451
     13  O3        14.0880   20.5230    6.1020 O.2   203  INH203     -0.2729
     14  N1        16.2780   20.8780    5.5500 N.am  203  INH203     -0.3038
     15  C11       16.5960   19.4710    5.3810 C.3   203  INH203      0.0748
     16  C12       16.5490   19.0090    3.9430 C.ar  203  INH203     -0.0215
     17  C13       15.6850   19.4260    2.8670 C.ar  203  INH203     -0.0565
     18  C14       15.8420   18.8290    1.5600 C.ar  203  INH203     -0.0614
     19  C15       16.8610   17.8330    1.3390 C.ar  203  INH203     -0.0615
     20  C16       17.7340   17.4190    2.4050 C.ar  203  INH203     -0.0582
     21  C17       17.5660   18.0170    3.7000 C.ar  203  INH203     -0.0398
     22  C18       18.3520   17.7670    4.9470 C.3   203  INH203      0.0008
     23  C19       18.0250   19.0360    5.7700 C.3   203  INH203      0.0816
     24  O4        18.9240   20.0960    5.4380 O.3   203  INH203     -0.3893
     25  C20       13.3030   24.5970    5.0800 C.3   203  INH203      0.1185
     26  O5        14.3440   25.4340    4.5040 O.3   203  INH203     -0.3861
     27  C21       11.9720   24.8490    4.3690 C.3   203  INH203      0.1628
     28  O6        11.8030   23.9510    3.2470 O.3   203  INH203     -0.3601
     29  C22       11.0930   24.5490    2.1420 C.3   203  INH203      0.0738
     30  C23        9.5860   24.4550    2.2690 C.ar  203  INH203     -0.0219
     31  C24        8.7630   25.6170    2.0110 C.ar  203  INH203     -0.0564
     32  C25        7.3430   25.5500    2.2250 C.ar  203  INH203     -0.0614
     33  C26        6.7430   24.3280    2.6850 C.ar  203  INH203     -0.0617
     34  C27        7.5520   23.1650    2.9330 C.ar  203  INH203     -0.0614
     35  C28        8.9700   23.2200    2.7260 C.ar  203  INH203     -0.0564
     36  C29       10.8600   24.6210    5.3830 C.2   203  INH203      0.2449
     37  O7        10.7510   23.5470    5.9790 O.2   203  INH203     -0.2729
     38  N2         9.9250   25.6200    5.5690 N.am  203  INH203     -0.3089
     39  C30        8.8250   25.4870    6.5160 C.3   203  INH203      0.0410
     40  C31        8.4100   26.6510    7.2790 C.ar  203  INH203      0.0231
     41  C32        7.1440   27.2950    7.0090 C.ar  203  INH203      0.1294
     42  C33        6.7630   28.4770    7.7560 C.ar  203  INH203     -0.0260
     43  C34        7.6410   29.0110    8.7650 C.ar  203  INH203     -0.0577
     44  C35        8.8990   28.3760    9.0380 C.ar  203  INH203     -0.0429
     45  C36        9.2820   27.1930    8.2920 C.ar  203  INH203      0.0484
     46 Cl1        11.0590   26.2810    8.6730 Cl    203  INH203     -0.0831
     47  F1         6.3390   26.8210    6.0630 F     203  INH203     -0.2051
     48  H1        12.9130   22.5020    5.1310 H     203  INH203      0.0651
     49  H2        14.8450   23.6810    3.4060 H     203  INH203      0.2100
     50  H3        15.7270   23.3550    5.9290 H     203  INH203      0.0720
     51  H4        14.7590   23.9400    9.1970 H     203  INH203      0.0610
     52  H5        15.8750   24.2710    7.8290 H     203  INH203      0.0610
     53  H6        14.5910   21.2110    9.7640 H     203  INH203      0.0621
     54  H7        16.1050   19.2890   10.4010 H     203  INH203      0.0618
     55  H8        18.5600   19.3770    9.8280 H     203  INH203      0.0618
     56  H9        19.5150   21.3820    8.6300 H     203  INH203      0.0618
     57  H10       18.0150   23.2990    7.9830 H     203  INH203      0.0621
     58  H11       16.9990   21.5550    5.4060 H     203  INH203      0.1495
     59  H12       15.8680   18.9060    5.9810 H     203  INH203      0.0574
     60  H13       14.9250   20.1800    3.0360 H     203  INH203      0.0621
     61  H14       15.1930   19.1300    0.7450 H     203  INH203      0.0618
     62  H15       16.9710   17.3900    0.3560 H     203  INH203      0.0618
     63  H16       18.5010   16.6730    2.2350 H     203  INH203      0.0620
     64  H17       19.4290   17.6900    4.7360 H     203  INH203      0.0339
     65  H18       18.0130   16.8550    5.4610 H     203  INH203      0.0339
     66  H19       18.0850   18.8170    6.8460 H     203  INH203      0.0618
     67  H20       18.7090   20.8660    5.9510 H     203  INH203      0.2099
     68  H21       13.1730   24.8600    6.1400 H     203  INH203      0.0651
     69  H22       14.4600   25.2100    3.5880 H     203  INH203      0.2100
     70  H23       11.9390   25.8870    4.0070 H     203  INH203      0.0720
     71  H24       11.3970   24.0390    1.2160 H     203  INH203      0.0610
     72  H25       11.3720   25.6110    2.0830 H     203  INH203      0.0610
     73  H26        9.2160   26.5360    1.6570 H     203  INH203      0.0621
     74  H27        6.7250   26.4210    2.0390 H     203  INH203      0.0618
     75  H28        5.6720   24.2820    2.8460 H     203  INH203      0.0618
     76  H29        7.0900   22.2470    3.2760 H     203  INH203      0.0618
     77  H30        9.5810   22.3430    2.9100 H     203  INH203      0.0621
     78  H31       10.0050   26.4620    5.0360 H     203  INH203      0.1491
     79  H32        9.1160   24.7130    7.2410 H     203  INH203      0.0513
     80  H33        7.9480   25.1450    5.9460 H     203  INH203      0.0513
     81  H34        5.8140   28.9610    7.5550 H     203  INH203      0.0646
     82  H35        7.3510   29.8960    9.3200 H     203  INH203      0.0619
     83  H36        9.5590   28.7790    9.7980 H     203  INH203      0.0632
@<TRIPOS>BOND
     1     1    48    1
     2     1    25    1
     3     1     3    1
     4     1     2    1
     5     2    49    1
     6     3    50    1
     7     3    12    1
     8     3     4    1
     9     4     5    1
    10     5    52    1
    11     5    51    1
    12     5     6    1
    13     6    11   ar
    14     6     7   ar
    15     7    53    1
    16     7     8   ar
    17     8    54    1
    18     8     9   ar
    19     9    55    1
    20     9    10   ar
    21    10    56    1
    22    10    11   ar
    23    11    57    1
    24    12    14   am
    25    12    13    2
    26    14    58    1
    27    14    15    1
    28    15    59    1
    29    15    23    1
    30    15    16    1
    31    16    21   ar
    32    16    17   ar
    33    17    60    1
    34    17    18   ar
    35    18    61    1
    36    18    19   ar
    37    19    62    1
    38    19    20   ar
    39    20    63    1
    40    20    21   ar
    41    21    22    1
    42    22    65    1
    43    22    64    1
    44    22    23    1
    45    23    66    1
    46    23    24    1
    47    24    67    1
    48    25    68    1
    49    25    27    1
    50    25    26    1
    51    26    69    1
    52    27    70    1
    53    27    36    1
    54    27    28    1
    55    28    29    1
    56    29    72    1
    57    29    71    1
    58    29    30    1
    59    30    35   ar
    60    30    31   ar
    61    31    73    1
    62    31    32   ar
    63    32    74    1
    64    32    33   ar
    65    33    75    1
    66    33    34   ar
    67    34    76    1
    68    34    35   ar
    69    35    77    1
    70    36    38   am
    71    36    37    2
    72    38    78    1
    73    38    39    1
    74    39    80    1
    75    39    79    1
    76    39    40    1
    77    40    45   ar
    78    40    41   ar
    79    41    47    1
    80    41    42   ar
    81    42    81    1
    82    42    43   ar
    83    43    82    1
    84    43    44   ar
    85    44    83    1
    86    44    45   ar
    87    45    46    1
