@<TRIPOS>MOLECULE
/tmp/ewbell/vina_1d4j_1d4j_lig/vina/vina5.pdbqt
 52 56 0 0 0
SMALL
GASTEIGER

@<TRIPOS>ATOM
      1  C1         3.6570   26.1360    3.7260 C.3   203  INH203      0.1880
      2  C20        4.2730   26.8830    4.8970 C.3   203  INH203      0.1880
      3  C21        3.7490   26.4400    6.2640 C.3   203  INH203      0.2440
      4  C29        2.5480   27.3120    6.5990 C.2   203  INH203      0.2490
      5  N2         1.2940   26.8840    6.2070 N.am  203  INH203     -0.3540
      6  H31        1.2180   26.0450    5.6690 H     203  INH203      0.1620
      7  O7         2.6730   28.3430    7.2640 O.2   203  INH203     -0.2710
      8  C30        0.0810   27.6150    6.5510 C.3   203  INH203      0.1660
      9  C31       -0.5900   27.3120    7.8030 C.ar  203  INH203      0.0200
     10  C36       -0.7590   28.3460    8.7940 C.ar  203  INH203      0.0440
     11  C35       -1.4590   28.0710   10.0350 C.ar  203  INH203      0.0240
     12 Cl1        -0.0030   30.2000    8.4430 Cl    203  INH203     -0.0840
     13  C34       -1.9860   26.7580   10.2760 C.ar  203  INH203      0.0050
     14  C33       -1.8210   25.7180    9.2920 C.ar  203  INH203      0.0430
     15  C32       -1.1240   25.9910    8.0520 C.ar  203  INH203      0.1260
     16  F1        -0.9950   25.0330    7.1390 F     203  INH203     -0.2050
     17  O6         4.7640   26.5910    7.2850 O.3   203  INH203     -0.3690
     18  C22        6.0960   26.7380    6.7450 C.3   203  INH203      0.2070
     19  C23        7.1090   27.2250    7.7610 C.ar  203  INH203     -0.0350
     20  C28        6.9490   28.5280    8.3830 C.ar  203  INH203      0.0090
     21  C27        7.8590   28.9440    9.4100 C.ar  203  INH203      0.0010
     22  C26        8.9280   28.0760    9.8190 C.ar  203  INH203      0.0000
     23  C25        9.0980   26.7880    9.2040 C.ar  203  INH203      0.0010
     24  C24        8.1940   26.3600    8.1710 C.ar  203  INH203      0.0090
     25  O5         4.0050   28.2990    4.6930 O.3   203  INH203     -0.3900
     26  H22        4.3090   28.7910    5.4470 H     203  INH203      0.2100
     27  C2         4.4240   24.8950    3.3310 C.3   203  INH203      0.2440
     28  C10        5.1520   25.2760    2.0710 C.2   203  INH203      0.2500
     29  N1         6.5240   25.4630    2.1360 N.am  203  INH203     -0.3480
     30  H11        7.0190   25.6900    1.2970 H     203  INH203      0.1630
     31  O3         4.5370   25.3970    1.0080 O.2   203  INH203     -0.2710
     32  C11        7.2690   25.3410    3.3770 C.3   203  INH203      0.1470
     33  C19        8.1510   26.5450    3.7710 C.3   203  INH203      0.1490
     34  C18        9.2830   26.0000    4.6740 C.3   203  INH203      0.0730
     35  C17        9.4630   24.6240    4.1180 C.ar  203  INH203     -0.0470
     36  C12        8.3000   24.2370    3.3600 C.ar  203  INH203     -0.0270
     37  C16       10.5930   23.7490    4.2530 C.ar  203  INH203      0.0080
     38  C13        8.2650   22.9520    2.7080 C.ar  203  INH203      0.0100
     39  C14        9.3950   22.0600    2.8400 C.ar  203  INH203      0.0010
     40  C15       10.5470   22.4620    3.6090 C.ar  203  INH203      0.0010
     41  O4         8.6900   27.1170    2.5780 O.3   203  INH203     -0.3930
     42  H20        8.4050   26.6110    1.8270 H     203  INH203      0.2100
     43  O2         3.5170   23.7980    3.0470 O.3   203  INH203     -0.3690
     44  C3         3.2070   23.0150    4.2240 C.3   203  INH203      0.2070
     45  C4         3.1280   21.5140    3.9710 C.ar  203  INH203     -0.0350
     46  C9         2.2430   20.9960    2.9490 C.ar  203  INH203      0.0090
     47  C8         2.0910   19.5780    2.7780 C.ar  203  INH203      0.0010
     48  C7         2.8210   18.6660    3.6240 C.ar  203  INH203      0.0000
     49  C6         3.7120   19.1700    4.6380 C.ar  203  INH203      0.0010
     50  C5         3.8730   20.5930    4.8130 C.ar  203  INH203      0.0090
     51  O1         3.5360   27.0480    2.6030 O.3   203  INH203     -0.3900
     52  H2         2.6920   27.4830    2.6370 H     203  INH203      0.2100
@<TRIPOS>BOND
     1    31    28    2
     2    30    29    1
     3    42    41    1
     4    28    29   am
     5    28    27    1
     6    29    32    1
     7    41    33    1
     8    51    52    1
     9    51     1    1
    10    38    39   ar
    11    38    36   ar
    12    47    46   ar
    13    47    48   ar
    14    39    40   ar
    15    46    45   ar
    16    43    27    1
    17    43    44    1
    18    27     1    1
    19    36    32    1
    20    36    35   ar
    21    32    33    1
    22    40    37   ar
    23    48    49   ar
    24     1     2    1
    25    33    34    1
    26    45    44    1
    27    45    50   ar
    28    35    37   ar
    29    35    34    1
    30    49    50   ar
    31    25     2    1
    32    25    26    1
    33     2     3    1
    34     6     5    1
    35     5     8    1
    36     5     4   am
    37     3     4    1
    38     3    17    1
    39     8     9    1
    40     4     7    2
    41    18    17    1
    42    18    19    1
    43    16    15    1
    44    19    24   ar
    45    19    20   ar
    46     9    15   ar
    47     9    10   ar
    48    15    14   ar
    49    24    23   ar
    50    20    21   ar
    51    12    10    1
    52    10    11   ar
    53    23    22   ar
    54    14    13   ar
    55    21    22   ar
    56    11    13   ar
