@<TRIPOS>MOLECULE
/tmp/ewbell/vina_1d4j_1d4j_lig/vina/vina4.pdbqt
 52 56 0 0 0
SMALL
GASTEIGER

@<TRIPOS>ATOM
      1  C1         3.6370   25.9590    3.7070 C.3   203  INH203      0.1880
      2  C20        4.3020   26.7530    4.8200 C.3   203  INH203      0.1880
      3  C21        3.6630   26.5520    6.1960 C.3   203  INH203      0.2440
      4  C29        2.7640   27.7510    6.4620 C.2   203  INH203      0.2490
      5  N2         3.2620   28.7920    7.2200 N.am  203  INH203     -0.3540
      6  H31        4.1760   28.7060    7.6160 H     203  INH203      0.1620
      7  O7         1.6390   27.8290    5.9600 O.2   203  INH203     -0.2710
      8  C30        2.5010   30.0110    7.4610 C.3   203  INH203      0.1660
      9  C31        2.7100   31.1540    6.5900 C.ar  203  INH203      0.0200
     10  C36        1.6020   31.7010    5.8450 C.ar  203  INH203      0.0440
     11  C35        1.7850   32.8640    4.9980 C.ar  203  INH203      0.0240
     12 Cl1        -0.2260   30.8230    5.9860 Cl    203  INH203     -0.0840
     13  C34        3.0810   33.4750    4.9020 C.ar  203  INH203      0.0050
     14  C33        4.1930   32.9360    5.6410 C.ar  203  INH203      0.0430
     15  C32        4.0130   31.7740    6.4880 C.ar  203  INH203      0.1260
     16  F1         5.0390   31.2960    7.1850 F     203  INH203     -0.2050
     17  O6         4.6720   26.4560    7.2290 O.3   203  INH203     -0.3690
     18  C22        6.0070   26.7180    6.7460 C.3   203  INH203      0.2070
     19  C23        6.9530   27.2110    7.8220 C.ar  203  INH203     -0.0350
     20  C28        8.0650   26.3790    8.2520 C.ar  203  INH203      0.0090
     21  C27        9.0100   26.8880    9.2030 C.ar  203  INH203      0.0010
     22  C26        8.8530   28.2150    9.7330 C.ar  203  INH203      0.0000
     23  C25        7.7520   29.0410    9.3200 C.ar  203  INH203      0.0010
     24  C24        6.7970   28.5420    8.3690 C.ar  203  INH203      0.0090
     25  O5         4.2440   28.1570    4.4410 O.3   203  INH203     -0.3900
     26  H22        4.5330   28.2540    3.5410 H     203  INH203      0.2100
     27  C2         4.4430   24.7650    3.2520 C.3   203  INH203      0.2440
     28  C10        5.1850   25.2420    2.0340 C.2   203  INH203      0.2500
     29  N1         6.5510   25.4610    2.1390 N.am  203  INH203     -0.3480
     30  H11        7.0550   25.7530    1.3270 H     203  INH203      0.1630
     31  O3         4.5890   25.4120    0.9670 O.2   203  INH203     -0.2710
     32  C11        7.2740   25.2830    3.3870 C.3   203  INH203      0.1470
     33  C19        8.1350   26.4740    3.8590 C.3   203  INH203      0.1490
     34  C18        9.2570   25.8950    4.7530 C.3   203  INH203      0.0730
     35  C17        9.4620   24.5510    4.1310 C.ar  203  INH203     -0.0470
     36  C12        8.3170   24.1920    3.3330 C.ar  203  INH203     -0.0270
     37  C16       10.5990   23.6810    4.2420 C.ar  203  INH203      0.0080
     38  C13        8.3080   22.9420    2.6150 C.ar  203  INH203      0.0100
     39  C14        9.4460   22.0560    2.7220 C.ar  203  INH203      0.0010
     40  C15       10.5790   22.4300    3.5320 C.ar  203  INH203      0.0010
     41  O4         8.6890   27.1120    2.7070 O.3   203  INH203     -0.3930
     42  H20        8.6620   26.5150    1.9690 H     203  INH203      0.2100
     43  O2         3.5720   23.6650    2.8830 O.3   203  INH203     -0.3690
     44  C3         3.0180   22.9850    4.0330 C.3   203  INH203      0.2070
     45  C4         2.9820   21.4670    3.9010 C.ar  203  INH203     -0.0350
     46  C9         2.0050   20.8370    3.0380 C.ar  203  INH203      0.0090
     47  C8         1.9030   19.4040    2.9910 C.ar  203  INH203      0.0010
     48  C7         2.7740   18.5910    3.8030 C.ar  203  INH203      0.0000
     49  C6         3.7560   19.2070    4.6590 C.ar  203  INH203      0.0010
     50  C5         3.8670   20.6440    4.7090 C.ar  203  INH203      0.0090
     51  O1         3.3650   26.8530    2.5960 O.3   203  INH203     -0.3900
     52  H2         3.9830   26.6830    1.8940 H     203  INH203      0.2100
@<TRIPOS>BOND
     1    31    28    2
     2    30    29    1
     3    52    51    1
     4    42    41    1
     5    28    29   am
     6    28    27    1
     7    29    32    1
     8    51     1    1
     9    38    39   ar
    10    38    36   ar
    11    41    33    1
    12    39    40   ar
    13    43    27    1
    14    43    44    1
    15    47    46   ar
    16    47    48   ar
    17    46    45   ar
    18    27     1    1
    19    36    32    1
    20    36    35   ar
    21    32    33    1
    22    40    37   ar
    23    26    25    1
    24     1     2    1
    25    48    49   ar
    26    33    34    1
    27    45    44    1
    28    45    50   ar
    29    35    37   ar
    30    35    34    1
    31    25     2    1
    32    49    50   ar
    33     2     3    1
    34    13    11   ar
    35    13    14   ar
    36    11    10   ar
    37    14    15   ar
    38    10    12    1
    39    10     9   ar
    40     7     4    2
    41     3     4    1
    42     3    17    1
    43     4     5   am
    44    15     9   ar
    45    15    16    1
    46     9     8    1
    47    18    17    1
    48    18    19    1
    49     5     8    1
    50     5     6    1
    51    19    20   ar
    52    19    24   ar
    53    20    21   ar
    54    24    23   ar
    55    21    22   ar
    56    23    22   ar
