@<TRIPOS>MOLECULE
/tmp/ewbell/vina_1d4j_1d4j_lig/vina/vina1.pdbqt
 52 56 0 0 0
SMALL
GASTEIGER

@<TRIPOS>ATOM
      1  C1         3.4690   25.6610    3.5620 C.3   203  INH203      0.1880
      2  C20        3.6080   26.2770    4.9440 C.3   203  INH203      0.1880
      3  C21        4.8600   27.1390    5.1180 C.3   203  INH203      0.2440
      4  C29        5.3600   26.9390    6.5420 C.2   203  INH203      0.2490
      5  N2         6.6690   26.5430    6.7300 N.am  203  INH203     -0.3540
      6  H31        7.2340   26.3470    5.9290 H     203  INH203      0.1620
      7  O7         4.6390   27.1890    7.5120 O.2   203  INH203     -0.2710
      8  C30        7.2550   26.4020    8.0580 C.3   203  INH203      0.1660
      9  C31        8.6980   26.3010    8.1820 C.ar  203  INH203      0.0200
     10  C36        9.4040   27.1790    9.0820 C.ar  203  INH203      0.0440
     11  C35       10.8410   27.0670    9.2460 C.ar  203  INH203      0.0240
     12 Cl1         8.3680   28.5850   10.1230 Cl    203  INH203     -0.0840
     13  C34       11.5650   26.0740    8.5040 C.ar  203  INH203      0.0050
     14  C33       10.8690   25.1930    7.6020 C.ar  203  INH203      0.0430
     15  C32        9.4330   25.3020    7.4370 C.ar  203  INH203      0.1260
     16  F1         8.7950   24.4700    6.6200 F     203  INH203     -0.2050
     17  O6         4.5640   28.5380    4.8940 O.3   203  INH203     -0.3690
     18  C22        3.1780   28.8700    5.1230 C.3   203  INH203      0.2070
     19  C23        2.9660   30.2980    5.5820 C.ar  203  INH203     -0.0350
     20  C28        1.8150   31.0510    5.1120 C.ar  203  INH203      0.0090
     21  C27        1.5690   32.3680    5.6210 C.ar  203  INH203      0.0010
     22  C26        2.4620   32.9440    6.5900 C.ar  203  INH203      0.0000
     23  C25        3.6070   32.2090    7.0540 C.ar  203  INH203      0.0010
     24  C24        3.8650   30.8880    6.5490 C.ar  203  INH203      0.0090
     25  O5         3.6160   25.1840    5.9040 O.3   203  INH203     -0.3900
     26  H22        4.1860   25.4040    6.6320 H     203  INH203      0.2100
     27  C2         4.2030   24.3490    3.4080 C.3   203  INH203      0.2440
     28  C10        4.7650   24.3830    2.0130 C.2   203  INH203      0.2500
     29  N1         6.1210   24.6310    1.8560 N.am  203  INH203     -0.3480
     30  H11        6.5060   24.6300    0.9340 H     203  INH203      0.1630
     31  O3         4.0340   24.1750    1.0410 O.2   203  INH203     -0.2710
     32  C11        7.0000   24.8950    2.9820 C.3   203  INH203      0.1470
     33  C19        7.7160   26.2620    2.9900 C.3   203  INH203      0.1490
     34  C18        9.0080   26.0910    3.8250 C.3   203  INH203      0.0730
     35  C17        9.3440   24.6600    3.5520 C.ar  203  INH203     -0.0470
     36  C12        8.1850   23.9620    3.0580 C.ar  203  INH203     -0.0270
     37  C16       10.6070   23.9950    3.7130 C.ar  203  INH203      0.0080
     38  C13        8.2860   22.5680    2.7020 C.ar  203  INH203      0.0100
     39  C14        9.5510   21.8860    2.8630 C.ar  203  INH203      0.0010
     40  C15       10.6980   22.6010    3.3660 C.ar  203  INH203      0.0010
     41  O4         8.0320   26.6130    1.6410 O.3   203  INH203     -0.3930
     42  H20        7.4890   26.1080    1.0470 H     203  INH203      0.2100
     43  O2         3.2890   23.2290    3.5300 O.3   203  INH203     -0.3690
     44  C3         3.9090   22.0700    4.1320 C.3   203  INH203      0.2070
     45  C4         3.1330   20.7730    3.9290 C.ar  203  INH203     -0.0350
     46  C9         1.8990   20.7760    3.1730 C.ar  203  INH203      0.0090
     47  C8         1.1150   19.5770    3.0670 C.ar  203  INH203      0.0010
     48  C7         1.5570   18.3660    3.7130 C.ar  203  INH203      0.0000
     49  C6         2.7880   18.3480    4.4610 C.ar  203  INH203      0.0010
     50  C5         3.5820   19.5470    4.5680 C.ar  203  INH203      0.0090
     51  O1         3.9200   26.6250    2.5740 O.3   203  INH203     -0.3900
     52  H2         4.0750   26.1830    1.7480 H     203  INH203      0.2100
@<TRIPOS>BOND
     1    30    29    1
     2    31    28    2
     3    42    41    1
     4    41    33    1
     5    52    51    1
     6    29    28   am
     7    29    32    1
     8    28    27    1
     9    51     1    1
    10    38    39   ar
    11    38    36   ar
    12    39    40   ar
    13    32    33    1
    14    32    36    1
    15    33    34    1
    16    36    35   ar
    17    47    46   ar
    18    47    48   ar
    19    46    45   ar
    20    40    37   ar
    21    27    43    1
    22    27     1    1
    23    43    44    1
    24    35    37   ar
    25    35    34    1
    26     1     2    1
    27    48    49   ar
    28    45    44    1
    29    45    50   ar
    30    49    50   ar
    31    17     3    1
    32    17    18    1
    33     2     3    1
    34     2    25    1
    35    20    19   ar
    36    20    21   ar
    37     3     4    1
    38    18    19    1
    39    19    24   ar
    40    21    22   ar
    41    25    26    1
    42     6     5    1
    43     4     5   am
    44     4     7    2
    45    24    23   ar
    46    22    23   ar
    47    16    15    1
    48     5     8    1
    49    15    14   ar
    50    15     9   ar
    51    14    13   ar
    52     8     9    1
    53     9    10   ar
    54    13    11   ar
    55    10    11   ar
    56    10    12    1
