@<TRIPOS>MOLECULE
/tmp/ewbell/vina_1d4j_1d4j_lig/vina/vina2.pdbqt
 52 56 0 0 0
SMALL
GASTEIGER

@<TRIPOS>ATOM
      1  C1         7.1120   24.2630    3.1670 C.3   203  INH203      0.1880
      2  C20        6.2750   25.4930    2.8560 C.3   203  INH203      0.1880
      3  C21        4.8650   25.4540    3.4500 C.3   203  INH203      0.2440
      4  C29        4.8510   26.3800    4.6580 C.2   203  INH203      0.2490
      5  N2         4.1860   25.9680    5.7950 N.am  203  INH203     -0.3540
      6  H31        3.6880   25.1010    5.7760 H     203  INH203      0.1620
      7  O7         5.4740   27.4450    4.6520 O.2   203  INH203     -0.2710
      8  C30        4.1850   26.7540    7.0220 C.3   203  INH203      0.1660
      9  C31        3.0440   27.6060    7.3110 C.ar  203  INH203      0.0200
     10  C36        3.2190   29.0350    7.3960 C.ar  203  INH203      0.0440
     11  C35        2.0840   29.9030    7.6470 C.ar  203  INH203      0.0240
     12 Cl1         5.0760   29.8290    7.1650 Cl    203  INH203     -0.0840
     13  C34        0.7770   29.3320    7.8120 C.ar  203  INH203      0.0050
     14  C33        0.5930   27.9060    7.7300 C.ar  203  INH203      0.0430
     15  C32        1.7240   27.0370    7.4790 C.ar  203  INH203      0.1260
     16  F1         1.5430   25.7240    7.3810 F     203  INH203     -0.2050
     17  O6         4.5090   24.1110    3.8570 O.3   203  INH203     -0.3690
     18  C22        3.4570   23.5340    3.0540 C.3   203  INH203      0.2070
     19  C23        3.1560   22.0900    3.3990 C.ar  203  INH203     -0.0350
     20  C28        2.1290   21.3660    2.6700 C.ar  203  INH203      0.0090
     21  C27        1.9110   19.9740    2.9380 C.ar  203  INH203      0.0010
     22  C26        2.7050   19.3000    3.9300 C.ar  203  INH203      0.0000
     23  C25        3.7170   20.0110    4.6610 C.ar  203  INH203      0.0010
     24  C24        3.9430   21.4070    4.4030 C.ar  203  INH203      0.0090
     25  O5         6.2050   25.6110    1.4080 O.3   203  INH203     -0.3900
     26  H22        5.8750   26.4720    1.1760 H     203  INH203      0.2100
     27  C2         8.4670   24.5860    3.7520 C.3   203  INH203      0.2440
     28  C10        8.6200   26.0720    3.5730 C.2   203  INH203      0.2500
     29  N1         8.6610   26.8700    4.7060 N.am  203  INH203     -0.3480
     30  H11        8.7880   27.8550    4.5970 H     203  INH203      0.1630
     31  O3         8.7260   26.5560    2.4430 O.2   203  INH203     -0.2710
     32  C11        8.5230   26.3260    6.0470 C.3   203  INH203      0.1470
     33  C19        7.8240   27.2280    7.0860 C.3   203  INH203      0.1490
     34  C18        8.3420   26.7970    8.4800 C.3   203  INH203      0.0730
     35  C17        9.7290   26.3480    8.1500 C.ar  203  INH203     -0.0470
     36  C12        9.8430   26.0790    6.7390 C.ar  203  INH203     -0.0270
     37  C16       10.8500   26.1930    9.0340 C.ar  203  INH203      0.0080
     38  C13       11.1070   25.6560    6.1900 C.ar  203  INH203      0.0100
     39  C14       12.2420   25.4920    7.0710 C.ar  203  INH203      0.0010
     40  C15       12.1060   25.7600    8.4820 C.ar  203  INH203      0.0010
     41  O4         8.1790   28.5850    6.8160 O.3   203  INH203     -0.3930
     42  H20        8.7200   28.9180    7.5210 H     203  INH203      0.2100
     43  O2         9.5190   23.9040    3.0210 O.3   203  INH203     -0.3690
     44  C3         9.8420   22.6130    3.5880 C.3   203  INH203      0.2070
     45  C4        11.1680   22.5750    4.3380 C.ar  203  INH203     -0.0350
     46  C9        12.4060   22.8410    3.6370 C.ar  203  INH203      0.0090
     47  C8        13.6640   22.7060    4.3180 C.ar  203  INH203      0.0010
     48  C7        13.6960   22.3070    5.7030 C.ar  203  INH203      0.0000
     49  C6        12.4700   22.0490    6.4140 C.ar  203  INH203      0.0010
     50  C5        11.2030   22.1850    5.7380 C.ar  203  INH203      0.0090
     51  O1         7.2460   23.4730    1.9560 O.3   203  INH203     -0.3900
     52  H2         6.5090   22.8790    1.8810 H     203  INH203      0.2100
@<TRIPOS>BOND
     1    26    25    1
     2    25     2    1
     3    52    51    1
     4    51     1    1
     5    31    28    2
     6    20    21   ar
     7    20    19   ar
     8     2     1    1
     9     2     3    1
    10    21    22   ar
    11    43    44    1
    12    43    27    1
    13    18    19    1
    14    18    17    1
    15     1    27    1
    16    19    24   ar
    17     3    17    1
    18     3     4    1
    19    28    27    1
    20    28    29   am
    21    44    45    1
    22    46    47   ar
    23    46    45   ar
    24    22    23   ar
    25    47    48   ar
    26    45    50   ar
    27    24    23   ar
    28    30    29    1
    29     7     4    2
    30     4     5   am
    31    29    32    1
    32    48    49   ar
    33    50    49   ar
    34     6     5    1
    35     5     8    1
    36    32    36    1
    37    32    33    1
    38    38    36   ar
    39    38    39   ar
    40    36    35   ar
    41    41    33    1
    42    41    42    1
    43     8     9    1
    44    39    40   ar
    45    33    34    1
    46    12    10    1
    47     9    10   ar
    48     9    15   ar
    49    16    15    1
    50    10    11   ar
    51    15    14   ar
    52    11    13   ar
    53    14    13   ar
    54    35    34    1
    55    35    37   ar
    56    40    37   ar
