@<TRIPOS>MOLECULE
/tmp/ewbell/vina_1d4j_1d4j_lig/vina/vina3.pdbqt
 52 56 0 0 0
SMALL
GASTEIGER

@<TRIPOS>ATOM
      1  C1         6.7860   24.6010    2.3770 C.3   203  INH203      0.1880
      2  C20        5.5400   24.2800    3.1870 C.3   203  INH203      0.1880
      3  C21        4.2440   24.3130    2.3750 C.3   203  INH203      0.2440
      4  C29        3.4940   25.5810    2.7580 C.2   203  INH203      0.2490
      5  N2         2.6510   25.5420    3.8510 N.am  203  INH203     -0.3540
      6  H31        2.5150   24.6730    4.3250 H     203  INH203      0.1620
      7  O7         3.6820   26.6400    2.1540 O.2   203  INH203     -0.2710
      8  C30        1.9540   26.7260    4.3370 C.3   203  INH203      0.1660
      9  C31        2.5460   27.4980    5.4150 C.ar  203  INH203      0.0200
     10  C36        2.9490   28.8640    5.1820 C.ar  203  INH203      0.0440
     11  C35        3.5090   29.6600    6.2580 C.ar  203  INH203      0.0240
     12 Cl1         2.7310   29.6670    3.3280 Cl    203  INH203     -0.0840
     13  C34        3.6630   29.0830    7.5630 C.ar  203  INH203      0.0050
     14  C33        3.2640   27.7200    7.8040 C.ar  203  INH203      0.0430
     15  C32        2.7040   26.9220    6.7330 C.ar  203  INH203      0.1260
     16  F1         2.3170   25.6730    6.9680 F     203  INH203     -0.2050
     17  O6         3.4240   23.1540    2.6570 O.3   203  INH203     -0.3690
     18  C22        3.7490   22.5200    3.9130 C.3   203  INH203      0.2070
     19  C23        3.2830   21.0810    4.0020 C.ar  203  INH203     -0.0350
     20  C28        2.2040   20.6110    3.1490 C.ar  203  INH203      0.0090
     21  C27        1.8290   19.2270    3.1710 C.ar  203  INH203      0.0010
     22  C26        2.5160   18.3100    4.0390 C.ar  203  INH203      0.0000
     23  C25        3.5780   18.7680    4.8910 C.ar  203  INH203      0.0010
     24  C24        3.9620   20.1530    4.8800 C.ar  203  INH203      0.0090
     25  O5         5.4740   25.2450    4.2740 O.3   203  INH203     -0.3900
     26  H22        6.3530   25.4460    4.5740 H     203  INH203      0.2100
     27  C2         8.0520   24.6290    3.2020 C.3   203  INH203      0.2440
     28  C10        8.5060   26.0630    3.1610 C.2   203  INH203      0.2500
     29  N1         8.4460   26.8050    4.3310 N.am  203  INH203     -0.3480
     30  H11        8.7710   27.7500    4.3180 H     203  INH203      0.1630
     31  O3         8.9390   26.5500    2.1140 O.2   203  INH203     -0.2710
     32  C11        7.9260   26.2590    5.5740 C.3   203  INH203      0.1470
     33  C19        6.8100   27.0690    6.2670 C.3   203  INH203      0.1490
     34  C18        6.8690   26.7230    7.7740 C.3   203  INH203      0.0730
     35  C17        8.3300   26.4600    7.9560 C.ar  203  INH203     -0.0470
     36  C12        8.9500   26.1950    6.6830 C.ar  203  INH203     -0.0270
     37  C16        9.0910   26.4620    9.1730 C.ar  203  INH203      0.0080
     38  C13       10.3680   25.9390    6.6160 C.ar  203  INH203      0.0100
     39  C14       11.1440   25.9360    7.8350 C.ar  203  INH203      0.0010
     40  C15       10.5040   26.1950    9.1010 C.ar  203  INH203      0.0010
     41  O4         7.0680   28.4590    6.0590 O.3   203  INH203     -0.3930
     42  H20        7.9100   28.5660    5.6340 H     203  INH203      0.2100
     43  O2         9.0720   23.7850    2.6080 O.3   203  INH203     -0.3690
     44  C3         9.5840   22.7990    3.5340 C.3   203  INH203      0.2070
     45  C4        10.8440   23.2330    4.2740 C.ar  203  INH203     -0.0350
     46  C9        11.6620   24.3050    3.7470 C.ar  203  INH203      0.0090
     47  C8        12.9010   24.6470    4.3870 C.ar  203  INH203      0.0010
     48  C7        13.3340   23.9240    5.5570 C.ar  203  INH203      0.0000
     49  C6        12.5240   22.8610    6.0960 C.ar  203  INH203      0.0010
     50  C5        11.2760   22.5150    5.4610 C.ar  203  INH203      0.0090
     51  O1         6.5850   25.8670    1.6950 O.3   203  INH203     -0.3900
     52  H2         6.5590   26.5700    2.3330 H     203  INH203      0.2100
@<TRIPOS>BOND
     1    51    52    1
     2    51     1    1
     3    31    28    2
     4     7     4    2
     5     3    17    1
     6     3     4    1
     7     3     2    1
     8     1     2    1
     9     1    27    1
    10    43    27    1
    11    43    44    1
    12    17    18    1
    13     4     5   am
    14    20    21   ar
    15    20    19   ar
    16    28    27    1
    17    28    29   am
    18    21    22   ar
    19     2    25    1
    20    12    10    1
    21    44    45    1
    22    46    45   ar
    23    46    47   ar
    24     5     6    1
    25     5     8    1
    26    18    19    1
    27    19    24   ar
    28    22    23   ar
    29    25    26    1
    30    45    50   ar
    31    30    29    1
    32    29    32    1
    33     8     9    1
    34    47    48   ar
    35    24    23   ar
    36    10     9   ar
    37    10    11   ar
    38     9    15   ar
    39    50    49   ar
    40    48    49   ar
    41    32    33    1
    42    32    36    1
    43    42    41    1
    44    41    33    1
    45    11    13   ar
    46    33    34    1
    47    38    36   ar
    48    38    39   ar
    49    36    35   ar
    50    15    16    1
    51    15    14   ar
    52    13    14   ar
    53    34    35    1
    54    39    40   ar
    55    35    37   ar
    56    40    37   ar
