@<TRIPOS>MOLECULE
./ligand/1gj8_lig.pdb
 44 46 0 0 0
SMALL
GASTEIGER

@<TRIPOS>ATOM
      1  H1        10.6530    2.5750   21.8990 H     263  INH263      0.0668
      2  H2         8.0100    3.4640   26.0810 H     263  INH263      0.0649
      3  H3         7.1730    0.3840   27.1820 H     263  INH263      0.3009
      4  H4         7.6970    2.0810   27.0150 H     263  INH263      0.3009
      5  H5         8.3400   -0.5590   24.0190 H     263  INH263      0.2883
      6  H6         7.4980   -1.0730   25.5060 H     263  INH263      0.2883
      7  H7        10.8510    5.3400   22.0730 H     263  INH263      0.1674
      8  H8         9.0900    7.7960   25.5380 H     263  INH263      0.0626
      9  H9         9.5710   10.1980   25.4060 H     263  INH263      0.0619
     10  H10       10.5620   11.1300   23.3490 H     263  INH263      0.0655
     11  H11       13.0880   10.6000   22.1650 H     263  INH263      0.0699
     12  H12       11.6530   11.6530   21.9240 H     263  INH263      0.0699
     13  H13       13.0970   12.4210   20.2660 H     263  INH263      0.0328
     14  H14       14.5550   10.9800   18.8710 H     263  INH263      0.0233
     15  H15       13.9430    9.5300   19.7380 H     263  INH263      0.0233
     16  H16       14.8880   10.7750   20.6240 H     263  INH263      0.0233
     17  H17       10.9130   11.7630   19.3230 H     263  INH263      0.0233
     18  H18       11.5850   10.1520   18.9010 H     263  INH263      0.0233
     19  H19       12.2350   11.6300   18.1140 H     263  INH263      0.0233
     20  C1         8.7020    1.9060   24.7210 C.ar  263  INH263      0.0980
     21  C2         9.5020    1.7010   23.5460 C.ar  263  INH263      0.1402
     22  C3        10.0890    2.7460   22.8090 C.ar  263  INH263     -0.0001
     23  C4         9.8940    3.9850   23.3270 C.ar  263  INH263      0.0692
     24  C5         9.1430    4.2220   24.4360 C.ar  263  INH263      0.0904
     25  C6         8.5610    3.2360   25.1760 C.ar  263  INH263     -0.0167
     26  C7         8.0960    0.8660   25.4440 C.2   263  INH263      0.2690
     27  N1         7.6220    1.1290   26.6300 N.2   263  INH263     -0.2884
     28  N2         7.9690   -0.3410   24.9550 N.pl3 263  INH263     -0.2496
     29  N3        10.2800    5.1330   22.9050 N.ar  263  INH263     -0.3377
     30  N4         9.0730    5.4870   24.7590 N.ar  263  INH263     -0.2276
     31  C8         9.7890    5.9750   23.7630 C.ar  263  INH263      0.1431
     32  C9        10.0240    7.3300   23.6610 C.ar  263  INH263      0.0676
     33  C10        9.6070    8.1950   24.6730 C.ar  263  INH263     -0.0472
     34  C11        9.8420    9.5420   24.5870 C.ar  263  INH263     -0.0574
     35  C12       10.4300   10.0580   23.4430 C.ar  263  INH263     -0.0161
     36  C13       10.8560    9.2200   22.4070 C.ar  263  INH263      0.1676
     37  C14       10.6190    7.8690   22.5090 C.ar  263  INH263      0.2308
     38  O1        11.0360    7.0530   21.4740 O.3   263  INH263     -0.2833
     39  O2        11.4570    9.7000   21.2550 O.3   263  INH263     -0.4879
     40  C15       12.2690   10.8580   21.4780 C.3   263  INH263      0.0921
     41  C16       12.8550   11.3540   20.1570 C.3   263  INH263     -0.0124
     42  C17       14.1520   10.6070   19.8240 C.3   263  INH263     -0.0596
     43  C18       11.8260   11.2150   19.0470 C.3   263  INH263     -0.0596
     44  F1         9.7230    0.4740   23.0740 F     263  INH263     -0.2045
@<TRIPOS>BOND
     1     1    22    1
     2     2    25    1
     3     3    27    1
     4     4    27    1
     5     5    28    1
     6     6    28    1
     7     7    29    1
     8     8    33    1
     9     9    34    1
    10    10    35    1
    11    11    40    1
    12    12    40    1
    13    13    41    1
    14    14    42    1
    15    15    42    1
    16    16    42    1
    17    17    43    1
    18    18    43    1
    19    19    43    1
    20    20    21   ar
    21    20    25   ar
    22    20    26    1
    23    21    22   ar
    24    21    44    1
    25    22    23   ar
    26    23    24   ar
    27    23    29   ar
    28    24    25   ar
    29    24    30   ar
    30    26    27    2
    31    26    28    1
    32    29    31   ar
    33    30    31   ar
    34    31    32    1
    35    32    33   ar
    36    32    37   ar
    37    33    34   ar
    38    34    35   ar
    39    35    36   ar
    40    36    37   ar
    41    36    39    1
    42    37    38    1
    43    39    40    1
    44    40    41    1
    45    41    42    1
    46    41    43    1
