@<TRIPOS>MOLECULE
/tmp/ewbell/vina_1gj8_1gj8_lig/vina/vina2.pdbqt
 32 34 0 0 0
SMALL
GASTEIGER

@<TRIPOS>ATOM
      1  H7         9.7140    5.4100   21.8590 H     263  INH263      0.1670
      2  C1         8.4400    1.6250   24.5920 C.ar  263  INH263      0.0480
      3  C2         9.5250    1.6710   23.6520 C.ar  263  INH263      0.1320
      4  C3         9.8360    2.8010   22.8740 C.ar  263  INH263      0.0750
      5  C4         9.0610    3.8890   23.1180 C.ar  263  INH263      0.0630
      6  C5         8.0230    3.8860   23.9970 C.ar  263  INH263      0.0610
      7  C6         7.6940    2.8120   24.7690 C.ar  263  INH263      0.0500
      8  N3         9.0750    5.0560   22.5850 N.pl3 263  INH263     -0.3400
      9  N4         7.3990    5.0320   24.0710 N.pl3 263  INH263     -0.3400
     10  H4         6.6130    5.3270   24.6500 H     263  INH263      0.1670
     11  C8         8.1020    5.6880   23.1670 C.3   263  INH263      0.1190
     12  C9         7.8210    7.0070   22.8770 C.ar  263  INH263      0.0440
     13  C10        8.8400    7.8710   22.4740 C.ar  263  INH263      0.0180
     14  C11        8.5730    9.1810   22.1750 C.ar  263  INH263      0.0040
     15  C12        7.2890    9.6700   22.3520 C.ar  263  INH263      0.0400
     16  C13        6.2440    8.8330   22.7590 C.ar  263  INH263      0.1020
     17  C14        6.5260    7.5190   23.0510 C.ar  263  INH263      0.1130
     18  F1        10.3070    0.6100   23.4580 F     263  INH263     -0.2050
     19  O1         5.4870    6.7040   23.4610 O.3   263  INH263     -0.3570
     20  H          4.8210    7.0430   24.0260 H     263  INH263      0.2170
     21  O2         4.9470    9.2860   22.9360 O.3   263  INH263     -0.3480
     22  C15        4.8430   10.7140   22.9620 C.3   263  INH263      0.1790
     23  C16        3.8530   11.1900   21.9010 C.3   263  INH263      0.0020
     24  C17        4.5910   11.7900   20.6990 C.3   263  INH263      0.0110
     25  C18        2.9430   10.0450   21.4880 C.3   263  INH263      0.0110
     26  C7         8.1130    0.4910   25.3520 C.2   263  INH263      0.1050
     27  N2         8.1680    0.4870   26.6600 N.pl3 263  INH263     -0.3850
     28  H5         8.4370    1.3440   27.1650 H     263  INH263      0.1570
     29  H6         7.9430   -0.3710   27.1830 H     263  INH263      0.1570
     30  N1         7.7720   -0.6000   24.7240 N.2   263  INH263     -0.3850
     31  H3         7.9540   -1.5190   25.1530 H     263  INH263      0.1570
     32  H4         7.3210   -0.5440   23.8010 H     263  INH263      0.1570
@<TRIPOS>BOND
     1    24    23    1
     2    25    23    1
     3     1     8    1
     4    23    22    1
     5    14    15   ar
     6    14    13   ar
     7    15    16   ar
     8    13    12   ar
     9     8     5    1
    10     8    11    1
    11    16    21    1
    12    16    17   ar
    13     4     5   ar
    14     4     3   ar
    15    12    17   ar
    16    12    11    1
    17    21    22    1
    18    17    19    1
    19     5     6   ar
    20    11     9    1
    21    18     3    1
    22    19    20    1
    23     3     2   ar
    24    32    30    1
    25     6     9    1
    26     6     7   ar
    27     9    10    1
    28     2     7   ar
    29     2    26    1
    30    30    31    1
    31    30    26    2
    32    26    27    1
    33    27    28    1
    34    27    29    1
