@<TRIPOS>MOLECULE
/tmp/ewbell/vina_1gj8_1gj8_lig/vina/vina4.pdbqt
 32 34 0 0 0
SMALL
GASTEIGER

@<TRIPOS>ATOM
      1  H7         6.7830    6.3090   26.0160 H     263  INH263      0.1670
      2  C1         8.6730    2.2670   24.1410 C.ar  263  INH263      0.0480
      3  C2         8.2560    2.4620   25.5020 C.ar  263  INH263      0.1320
      4  C3         7.7270    3.6710   25.9900 C.ar  263  INH263      0.0750
      5  C4         7.5770    4.6430   25.0560 C.ar  263  INH263      0.0630
      6  C5         7.9610    4.5000   23.7590 C.ar  263  INH263      0.0610
      7  C6         8.4750    3.3450   23.2490 C.ar  263  INH263      0.0500
      8  N3         7.1390    5.8440   25.1680 N.pl3 263  INH263     -0.3400
      9  N4         7.7400    5.5610   23.0290 N.pl3 263  INH263     -0.3400
     10  H4         7.9010    5.7350   22.0370 H     263  INH263      0.1670
     11  C8         7.2450    6.3400   23.9730 C.3   263  INH263      0.1190
     12  C9         6.8320    7.6240   23.6850 C.ar  263  INH263      0.0440
     13  C10        5.7860    8.2050   24.4010 C.ar  263  INH263      0.0180
     14  C11        5.3730    9.4820   24.1300 C.ar  263  INH263      0.0040
     15  C12        5.9500   10.1740   23.0770 C.ar  263  INH263      0.0400
     16  C13        6.9980    9.6200   22.3350 C.ar  263  INH263      0.1020
     17  C14        7.4070    8.3390   22.6220 C.ar  263  INH263      0.1130
     18  F1         8.3660    1.4820   26.3980 F     263  INH263     -0.2050
     19  O1         8.4370    7.7990   21.8740 O.3   263  INH263     -0.3570
     20  H          8.3970    6.9050   21.5970 H     263  INH263      0.2170
     21  O2         7.6060   10.2880   21.2840 O.3   263  INH263     -0.3480
     22  C15        6.7350   11.2070   20.6160 C.3   263  INH263      0.1790
     23  C16        7.5460   12.1730   19.7540 C.3   263  INH263      0.0020
     24  C17        9.0490   11.9680   19.9770 C.3   263  INH263      0.0110
     25  C18        7.1670   12.0080   18.2920 C.3   263  INH263      0.0110
     26  C7         9.2230    1.0700   23.6570 C.2   263  INH263      0.1050
     27  N2         8.5060   -0.0130   23.4920 N.pl3 263  INH263     -0.3850
     28  H5         7.4970    0.0040   23.6990 H     263  INH263      0.1570
     29  H6         8.9500   -0.8790   23.1570 H     263  INH263      0.1570
     30  N1        10.5000    1.0370   23.3920 N.2   263  INH263     -0.3850
     31  H3        11.0200    0.1510   23.4750 H     263  INH263      0.1570
     32  H4        10.9880    1.8940   23.0990 H     263  INH263      0.1570
@<TRIPOS>BOND
     1    25    23    1
     2    23    24    1
     3    23    22    1
     4    22    21    1
     5    21    16    1
     6    20    19    1
     7    19    17    1
     8    10     9    1
     9    16    17   ar
    10    16    15   ar
    11    17    12   ar
    12     9     6    1
    13     9    11    1
    14    15    14   ar
    15    32    30    1
    16    29    27    1
    17     7     6   ar
    18     7     2   ar
    19    30    31    1
    20    30    26    2
    21    27    26    1
    22    27    28    1
    23    26     2    1
    24    12    11    1
    25    12    13   ar
    26     6     5   ar
    27    11     8    1
    28    14    13   ar
    29     2     3   ar
    30     5     8    1
    31     5     4   ar
    32     8     1    1
    33     3     4   ar
    34     3    18    1
