@<TRIPOS>MOLECULE
/tmp/ewbell/vina_1gj8_1gj8_lig/vina/vina1.pdbqt
 32 34 0 0 0
SMALL
GASTEIGER

@<TRIPOS>ATOM
      1  H7         8.8250    6.6880   25.6980 H     263  INH263      0.1670
      2  C1         8.6840    2.0300   24.3940 C.ar  263  INH263      0.0480
      3  C2         7.9890    2.6270   25.5000 C.ar  263  INH263      0.1320
      4  C3         8.0830    3.9900   25.8370 C.ar  263  INH263      0.0750
      5  C4         8.8460    4.7310   24.9940 C.ar  263  INH263      0.0630
      6  C5         9.5220    4.2040   23.9380 C.ar  263  INH263      0.0610
      7  C6         9.4530    2.8910   23.5790 C.ar  263  INH263      0.0500
      8  N3         9.1400    5.9800   25.0200 N.pl3 263  INH263     -0.3400
      9  N4        10.2060    5.0890   23.2620 N.pl3 263  INH263     -0.3400
     10  H4        10.7800    4.9920   22.4250 H     263  INH263      0.1670
     11  C8         9.9250    6.1480   23.9990 C.3   263  INH263      0.1190
     12  C9        10.4290    7.3890   23.6730 C.ar  263  INH263      0.0440
     13  C10        9.7060    8.5440   23.9730 C.ar  263  INH263      0.0180
     14  C11       10.2010    9.7830   23.6610 C.ar  263  INH263      0.0040
     15  C12       11.3970    9.8830   22.9680 C.ar  263  INH263      0.0400
     16  C13       12.1450    8.7460   22.6470 C.ar  263  INH263      0.1020
     17  C14       11.6390    7.5080   22.9710 C.ar  263  INH263      0.1130
     18  F1         7.2060    1.8950   26.2920 F     263  INH263     -0.2050
     19  O1        12.3840    6.3920   22.6390 O.3   263  INH263     -0.3570
     20  H         12.6130    5.7680   23.2990 H     263  INH263      0.2170
     21  O2        13.3490    8.8100   21.9640 O.3   263  INH263     -0.3480
     22  C15       13.8560   10.1420   21.8310 C.3   263  INH263      0.1790
     23  C16       14.2590   10.4110   20.3830 C.3   263  INH263      0.0020
     24  C17       13.0240   10.6800   19.5150 C.3   263  INH263      0.0110
     25  C18       15.2490   11.5630   20.3240 C.3   263  INH263      0.0110
     26  C7         8.6090    0.6660   24.0700 C.2   263  INH263      0.1050
     27  N2         8.5340   -0.2670   24.9850 N.pl3 263  INH263     -0.3850
     28  H5         8.5040   -0.0070   25.9810 H     263  INH263      0.1570
     29  H6         8.5040   -1.2590   24.7100 H     263  INH263      0.1570
     30  N1         8.6470    0.3240   22.8110 N.2   263  INH263     -0.3850
     31  H3         9.5220    0.4220   22.2770 H     263  INH263      0.1570
     32  H4         7.8020   -0.0430   22.3520 H     263  INH263      0.1570
@<TRIPOS>BOND
     1    24    23    1
     2    25    23    1
     3    23    22    1
     4    22    21    1
     5    21    16    1
     6    31    30    1
     7    32    30    1
     8    10     9    1
     9    19    17    1
    10    19    20    1
    11    16    15   ar
    12    16    17   ar
    13    30    26    2
    14    15    14   ar
    15    17    12   ar
    16     9     6    1
    17     9    11    1
    18     7     6   ar
    19     7     2   ar
    20    14    13   ar
    21    12    13   ar
    22    12    11    1
    23     6     5   ar
    24    11     8    1
    25    26     2    1
    26    26    27    1
    27     2     3   ar
    28    29    27    1
    29    27    28    1
    30     5     8    1
    31     5     4   ar
    32     8     1    1
    33     3     4   ar
    34     3    18    1
