@<TRIPOS>MOLECULE
/tmp/ewbell/vina_1gj8_1gj8_lig/vina/vina3.pdbqt
 32 34 0 0 0
SMALL
GASTEIGER

@<TRIPOS>ATOM
      1  H7         8.1310    9.2020   22.7100 H     263  INH263      0.1670
      2  C1        12.7960    9.7090   21.5270 C.ar  263  INH263      0.0480
      3  C2        11.7680   10.7020   21.3860 C.ar  263  INH263      0.1320
      4  C3        10.4220   10.4870   21.7360 C.ar  263  INH263      0.0750
      5  C4        10.1650    9.2720   22.2820 C.ar  263  INH263      0.0630
      6  C5        11.1090    8.3030   22.4310 C.ar  263  INH263      0.0610
      7  C6        12.4220    8.4760   22.1070 C.ar  263  INH263      0.0500
      8  N3         9.0620    8.7620   22.6950 N.pl3 263  INH263     -0.3400
      9  N4        10.6480    7.2040   22.9670 N.pl3 263  INH263     -0.3400
     10  H4        11.1190    6.3340   23.2150 H     263  INH263      0.1670
     11  C8         9.3850    7.5670   23.0870 C.3   263  INH263      0.1190
     12  C9         8.4540    6.7110   23.6360 C.ar  263  INH263      0.0440
     13  C10        7.3630    7.2170   24.3430 C.ar  263  INH263      0.0180
     14  C11        6.4260    6.3770   24.8860 C.ar  263  INH263      0.0040
     15  C12        6.6100    5.0070   24.7980 C.ar  263  INH263      0.0400
     16  C13        7.6950    4.4650   24.1010 C.ar  263  INH263      0.1020
     17  C14        8.6250    5.3200   23.5560 C.ar  263  INH263      0.1130
     18  F1        12.0450   11.9080   20.8910 F     263  INH263     -0.2050
     19  O1         9.6970    4.7720   22.8770 O.3   263  INH263     -0.3570
     20  H          9.9120    3.8670   22.9930 H     263  INH263      0.2170
     21  O2         7.9040    3.1010   23.9830 O.3   263  INH263     -0.3480
     22  C15        8.1600    2.4560   25.2360 C.3   263  INH263      0.1790
     23  C16        8.7860    1.0820   25.0050 C.3   263  INH263      0.0020
     24  C17        7.7430   -0.0280   25.1780 C.3   263  INH263      0.0110
     25  C18        9.4370    1.0330   23.6320 C.3   263  INH263      0.0110
     26  C7        14.1350    9.9130   21.1580 C.2   263  INH263      0.1050
     27  N2        14.4810   10.2400   19.9380 N.2   263  INH263     -0.3850
     28  H5        13.7570   10.3790   19.2190 H     263  INH263      0.1570
     29  H6        15.4760   10.3590   19.6990 H     263  INH263      0.1570
     30  N1        15.0610    9.7400   22.0600 N.pl3 263  INH263     -0.3850
     31  H3        15.3850    8.7890   22.2900 H     263  INH263      0.1570
     32  H4        15.4690   10.5520   22.5420 H     263  INH263      0.1570
@<TRIPOS>BOND
     1    28    27    1
     2    29    27    1
     3    27    26    2
     4    18     3    1
     5    26     2    1
     6    26    30    1
     7     3     2   ar
     8     3     4   ar
     9     2     7   ar
    10     4     5   ar
    11    30    31    1
    12    30    32    1
    13     7     6   ar
    14     5     6   ar
    15     5     8    1
    16     6     9    1
    17     8     1    1
    18     8    11    1
    19    19    20    1
    20    19    17    1
    21     9    11    1
    22     9    10    1
    23    11    12    1
    24    17    12   ar
    25    17    16   ar
    26    25    23    1
    27    12    13   ar
    28    21    16    1
    29    21    22    1
    30    16    15   ar
    31    13    14   ar
    32    15    14   ar
    33    23    24    1
    34    23    22    1
