@<TRIPOS>MOLECULE
/tmp/ewbell/vina_1gj8_1gj8_lig/vina/vina5.pdbqt
 32 34 0 0 0
SMALL
GASTEIGER

@<TRIPOS>ATOM
      1  H7         5.4030    6.1100   26.3160 H     263  INH263      0.1670
      2  C1         8.7910    3.4490   24.1090 C.ar  263  INH263      0.0480
      3  C2         8.4000    3.3590   25.4890 C.ar  263  INH263      0.1320
      4  C3         7.4150    4.1750   26.0760 C.ar  263  INH263      0.0750
      5  C4         6.8030    5.0310   25.2200 C.ar  263  INH263      0.0630
      6  C5         7.1440    5.1490   23.9080 C.ar  263  INH263      0.0610
      7  C6         8.0910    4.3760   23.3040 C.ar  263  INH263      0.0500
      8  N3         5.8840    5.9020   25.4290 N.pl3 263  INH263     -0.3400
      9  N4         6.4400    6.0410   23.2640 N.pl3 263  INH263     -0.3400
     10  H4         6.4560    6.3250   22.2840 H     263  INH263      0.1670
     11  C8         5.6990    6.4610   24.2720 C.3   263  INH263      0.1190
     12  C9         4.7460    7.4410   24.0880 C.ar  263  INH263      0.0440
     13  C10        3.5890    7.4520   24.8660 C.ar  263  INH263      0.0180
     14  C11        2.6390    8.4250   24.6990 C.ar  263  INH263      0.0040
     15  C12        2.7960    9.3620   23.6890 C.ar  263  INH263      0.0400
     16  C13        3.9420    9.3770   22.8870 C.ar  263  INH263      0.1020
     17  C14        4.8900    8.3970   23.0700 C.ar  263  INH263      0.1130
     18  F1         8.9780    2.4800   26.3070 F     263  INH263     -0.2050
     19  O1         6.0130    8.4180   22.2650 O.3   263  INH263     -0.3570
     20  H          6.6490    9.0980   22.3640 H     263  INH263      0.2170
     21  O2         4.1360   10.3040   21.8770 O.3   263  INH263     -0.3480
     22  C15        2.9170   10.7480   21.2710 C.3   263  INH263      0.1790
     23  C16        2.8780   12.2740   21.2210 C.3   263  INH263      0.0020
     24  C17        3.9040   12.8120   20.2160 C.3   263  INH263      0.0110
     25  C18        1.4710   12.7470   20.8950 C.3   263  INH263      0.0110
     26  C7         9.7900    2.6530   23.5270 C.2   263  INH263      0.1050
     27  N2         9.7190    1.3460   23.5090 N.pl3 263  INH263     -0.3850
     28  H5         8.8990    0.8710   23.9120 H     263  INH263      0.1570
     29  H6        10.4830    0.7940   23.0930 H     263  INH263      0.1570
     30  N1        10.8340    3.2440   23.0140 N.2   263  INH263     -0.3850
     31  H3        11.1660    4.1350   23.4100 H     263  INH263      0.1570
     32  H4        11.3250    2.8200   22.2160 H     263  INH263      0.1570
@<TRIPOS>BOND
     1    24    23    1
     2    25    23    1
     3    23    22    1
     4    22    21    1
     5    21    16    1
     6    32    30    1
     7    19    20    1
     8    19    17    1
     9    10     9    1
    10    16    17   ar
    11    16    15   ar
    12    30    31    1
    13    30    26    2
    14    17    12   ar
    15    29    27    1
    16     9     6    1
    17     9    11    1
    18     7     6   ar
    19     7     2   ar
    20    27    26    1
    21    27    28    1
    22    26     2    1
    23    15    14   ar
    24     6     5   ar
    25    12    11    1
    26    12    13   ar
    27     2     3   ar
    28    11     8    1
    29    14    13   ar
    30     5     8    1
    31     5     4   ar
    32     8     1    1
    33     3     4   ar
    34     3    18    1
