@<TRIPOS>MOLECULE
./ligand/2ilz_lig.pdb
 44 46 0 0 0
SMALL
GASTEIGER

@<TRIPOS>ATOM
      1  C1       225.2460  -63.3720   -0.4630 C.ar  468  INH468      0.1005
      2  C2       226.6490  -63.8050   -2.0040 C.ar  468  INH468      0.1721
      3  C3       225.4030  -64.1280   -2.5280 C.ar  468  INH468      0.1712
      4  C4       227.8070  -63.9990   -2.8220 C.ar  468  INH468      0.2803
      5  C5       226.1960  -64.7910   -4.5020 C.ar  468  INH468      0.1950
      6  C6       221.8760  -64.3860   -3.5870 C.3   468  INH468      0.1135
      7  C7       222.2510  -63.2540   -2.6230 C.3   468  INH468      0.1285
      8  C8       221.7390  -65.5770   -2.6620 C.3   468  INH468      0.1133
      9  C9       223.0390  -64.0000   -1.5350 C.3   468  INH468      0.1667
     10  C10      221.9280  -66.9460   -3.2620 C.3   468  INH468      0.0836
     11  N1       226.5290  -63.3280   -0.7050 N.ar  468  INH468     -0.2286
     12  N2       225.1060  -64.6190   -3.7580 N.ar  468  INH468     -0.1963
     13  N3       224.4990  -63.8460   -1.5190 N.ar  468  INH468     -0.2854
     14  N4       227.4700  -64.5060   -4.0770 N.ar  468  INH468     -0.2934
     15  N5       226.0910  -65.2690   -5.7510 N.pl3 468  INH468     -0.3289
     16  O1       216.7980  -72.5200   -1.5960 O.2   468  INH468     -0.2221
     17  O2       215.2280  -70.6820   -2.3080 O.3   468  INH468     -0.1143
     18  O3       221.3720  -70.2330   -1.3040 O.2   468  INH468     -0.5170
     19  O4       218.5670  -67.8370   -1.1190 O.2   468  INH468     -0.5168
     20  O5       228.9920  -63.7790   -2.5490 O.2   468  INH468     -0.2654
     21  O6       217.1390  -71.4590   -3.8730 O.3   468  INH468     -0.1143
     22  O7       222.0060  -69.9940   -3.7460 O.3   468  INH468     -0.4371
     23  O8       217.4530  -68.2140   -3.3820 O.3   468  INH468     -0.4368
     24  O9       222.7320  -65.3740   -1.6310 O.3   468  INH468     -0.3456
     25  O10      220.6020  -64.1770   -4.1830 O.3   468  INH468     -0.3864
     26  O11      221.1210  -62.6270   -2.0390 O.3   468  INH468     -0.3847
     27  O12      221.8870  -67.9050   -2.2410 O.3   468  INH468     -0.3246
     28  O13      217.7250  -70.1900   -1.6580 O.3   468  INH468     -0.2258
     29  O14      219.7090  -69.2660   -3.0120 O.3   468  INH468     -0.2700
     30  P1       216.7470  -71.1780   -2.4740 P.3   468  INH468      0.5373
     31  P2       221.2320  -69.3560   -2.4870 P.3   468  INH468      0.2182
     32  P3       218.3760  -68.8220   -2.2080 P.3   468  INH468      0.2277
     33  H1       224.8120  -63.0650    0.4770 H     468  INH468      0.1030
     34  H2       222.6110  -64.4840   -4.4000 H     468  INH468      0.0647
     35  H3       222.7980  -62.4460   -3.1310 H     468  INH468      0.0665
     36  H4       220.6940  -65.5980   -2.3190 H     468  INH468      0.0647
     37  H5       222.7150  -63.5290   -0.5950 H     468  INH468      0.0866
     38  H6       221.1250  -67.1450   -3.9870 H     468  INH468      0.0591
     39  H7       222.9000  -66.9940   -3.7760 H     468  INH468      0.0591
     40  H8       228.2170  -64.6760   -4.7200 H     468  INH468      0.1716
     41  H9       227.0030  -65.3310   -6.1570 H     468  INH468      0.1451
     42  H10      225.2360  -65.5230   -6.2040 H     468  INH468      0.1451
     43  H11      219.9380  -64.1300   -3.5050 H     468  INH468      0.2100
     44  H12      221.2790  -62.4870   -1.1130 H     468  INH468      0.2101
@<TRIPOS>BOND
     1     1    13   ar
     2     1    33    1
     3     1    11   ar
     4     2    11   ar
     5     2     4   ar
     6     2     3   ar
     7     3    13   ar
     8     3    12   ar
     9     4    14   ar
    10     4    20    2
    11     5    12   ar
    12     5    15    1
    13     5    14   ar
    14     6    34    1
    15     6    25    1
    16     6     8    1
    17     6     7    1
    18     7    35    1
    19     7    26    1
    20     7     9    1
    21     8    24    1
    22     8    36    1
    23     8    10    1
    24     9    37    1
    25     9    24    1
    26     9    13    1
    27    10    39    1
    28    10    38    1
    29    10    27    1
    30    14    40    1
    31    15    42    1
    32    15    41    1
    33    16    30    2
    34    17    30    1
    35    18    31    2
    36    19    32    2
    37    21    30    1
    38    22    31    1
    39    23    32    1
    40    25    43    1
    41    26    44    1
    42    27    31    1
    43    28    32    1
    44    28    30    1
    45    29    31    1
    46    29    32    1
