@<TRIPOS>MOLECULE
/tmp/ewbell/vina_2ilz_2ilz_lig/vina/vina4.pdbqt
 43 45 0 0 0
SMALL
GASTEIGER

@<TRIPOS>ATOM
      1  C6       230.2770  -51.7780    1.5110 C.3   468  INH468      0.1820
      2  C7       229.8020  -51.7710    2.9690 C.3   468  INH468      0.1980
      3  C8       230.0310  -53.2120    1.0900 C.3   468  INH468      0.1800
      4  C9       230.1180  -53.2050    3.4220 C.3   468  INH468      0.2620
      5  O9       230.2860  -54.0050    2.2720 O.3   468  INH468     -0.3530
      6  C10      230.8560  -53.7510   -0.0500 C.3   468  INH468      0.2150
      7  O12      231.9320  -52.8850   -0.2880 O.3   468  INH468     -0.2940
      8  P2       233.2770  -53.4050   -1.0050 P.3   468  INH468      0.4010
      9  O3       234.2270  -52.3020   -1.2660 O.2   468  INH468     -0.6310
     10  O7       232.8170  -54.0820   -2.3910 O.3   468  INH468     -0.3070
     11  H        232.8790  -55.0470   -2.3150 H     468  INH468      0.2220
     12  O14      233.9610  -54.6360   -0.2170 O.3   468  INH468     -0.1950
     13  P3       235.3100  -55.4550   -0.5750 P.3   468  INH468      0.4100
     14  O4       236.5850  -54.8360   -0.1470 O.2   468  INH468     -0.6310
     15  O8       235.0680  -56.8610    0.1800 O.3   468  INH468     -0.3070
     16  H        234.1280  -56.9510    0.4020 H     468  INH468      0.2220
     17  O13      235.2700  -55.6830   -2.1700 O.3   468  INH468     -0.1950
     18  P1       236.1580  -54.9030   -3.2670 P.3   468  INH468      0.3990
     19  O1       235.0680  -54.5050   -4.3750 O.2   468  INH468     -0.6310
     20  O2       236.6170  -53.4840   -2.6700 O.3   468  INH468     -0.3070
     21  H        236.0450  -53.2480   -1.9220 H     468  INH468      0.2220
     22  O6       237.2560  -55.6840   -3.8780 O.3   468  INH468     -0.3070
     23  H        237.3500  -55.4350   -4.8110 H     468  INH468      0.2220
     24  O10      229.4630  -50.9590    0.6820 O.3   468  INH468     -0.3900
     25  H11      229.8770  -50.8530   -0.1660 H     468  INH468      0.2100
     26  O11      228.4100  -51.5330    3.0970 O.3   468  INH468     -0.3880
     27  H12      228.2040  -51.3340    4.0020 H     468  INH468      0.2100
     28  N3       231.2740  -53.4060    4.3050 N.pl3 468  INH468     -0.2970
     29  C1       231.2180  -53.7680    5.6320 C.3   468  INH468      0.1880
     30  N1       232.3900  -53.8770    6.1980 N.pl3 468  INH468     -0.3450
     31  C2       233.2880  -53.5700    5.1840 C.2   468  INH468      0.1470
     32  H1       232.5980  -54.1300    7.1640 H     468  INH468      0.1670
     33  C4       234.7190  -53.5250    5.1890 C.2   468  INH468      0.2900
     34  C3       232.6170  -53.2720    4.0040 C.2   468  INH468      0.1590
     35  N4       235.2250  -53.1670    3.9390 N.am  468  INH468     -0.1540
     36  O5       235.4960  -53.7550    6.1210 O.2   468  INH468     -0.2650
     37  C5       234.4700  -52.8860    2.8270 C.3   468  INH468      0.6800
     38  H8       236.2190  -53.1110    3.8450 H     468  INH468      0.1870
     39  N2       233.1400  -52.9240    2.8000 N.pl3 468  INH468     -0.1740
     40  N5       235.1580  -52.5590    1.7220 N.3   468  INH468     -0.2340
     41  H2       232.5800  -52.7150    1.9730 H     468  INH468      0.1860
     42  H10      234.7540  -52.3290    0.8370 H     468  INH468      0.1740
     43  H9       236.1370  -52.5820    1.9260 H     468  INH468      0.1740
@<TRIPOS>BOND
     1    23    22    1
     2    19    18    2
     3    22    18    1
     4    18    20    1
     5    18    17    1
     6    20    21    1
     7    10    11    1
     8    10     8    1
     9    17    13    1
    10     9     8    2
    11     8     7    1
    12     8    12    1
    13    13    12    1
    14    13    14    2
    15    13    15    1
    16     7     6    1
    17    25    24    1
    18     6     3    1
    19    15    16    1
    20    24     1    1
    21    42    40    1
    22     3     1    1
    23     3     5    1
    24     1     2    1
    25    40    43    1
    26    40    37    1
    27    41    39    1
    28     5     4    1
    29    39    37    1
    30    39    34    1
    31    37    35    1
    32     2    26    1
    33     2     4    1
    34    26    27    1
    35     4    28    1
    36    38    35    1
    37    35    33   am
    38    34    28    1
    39    34    31    2
    40    28    29    1
    41    31    33    1
    42    31    30    1
    43    33    36    2
    44    29    30    1
    45    30    32    1
