@<TRIPOS>MOLECULE
/tmp/ewbell/vina_2ilz_2ilz_lig/vina/vina3.pdbqt
 43 45 0 0 0
SMALL
GASTEIGER

@<TRIPOS>ATOM
      1  C6       223.5210  -65.2460   -6.0370 C.3   468  INH468      0.1820
      2  C7       224.7160  -66.1120   -6.4500 C.3   468  INH468      0.1980
      3  C8       222.9390  -66.0180   -4.8720 C.3   468  INH468      0.1800
      4  C9       224.2310  -67.5270   -6.0960 C.3   468  INH468      0.2620
      5  O9       223.1520  -67.4110   -5.1940 O.3   468  INH468     -0.3530
      6  C10      221.4800  -65.8050   -4.5580 C.3   468  INH468      0.2150
      7  O12      221.2260  -66.2280   -3.2470 O.3   468  INH468     -0.2940
      8  P2       219.8770  -65.7960   -2.4790 P.3   468  INH468      0.4010
      9  O3       218.9750  -65.0080   -3.3470 O.2   468  INH468     -0.6310
     10  O7       220.3390  -64.9160   -1.2130 O.3   468  INH468     -0.3070
     11  H        219.5700  -64.4570   -0.8410 H     468  INH468      0.2220
     12  O14      219.1310  -67.0490   -1.7890 O.3   468  INH468     -0.1950
     13  P3       218.7270  -68.4780   -2.4330 P.3   468  INH468      0.4100
     14  O4       217.3420  -68.9420   -2.1820 O.2   468  INH468     -0.6310
     15  O8       218.9750  -68.2280   -4.0080 O.3   468  INH468     -0.3070
     16  H        218.3200  -67.5950   -4.3420 H     468  INH468      0.2220
     17  O13      219.8120  -69.5300   -1.8730 O.3   468  INH468     -0.1950
     18  P1       220.9620  -70.2630   -2.7330 P.3   468  INH468      0.3990
     19  O1       220.1140  -71.0660   -3.8330 O.2   468  INH468     -0.6310
     20  O2       221.7570  -69.1690   -3.6010 O.3   468  INH468     -0.3070
     21  H        222.4740  -69.6040   -4.0900 H     468  INH468      0.2220
     22  O6       221.8390  -71.1870   -1.9790 O.3   468  INH468     -0.3070
     23  H        221.3520  -72.0020   -1.7780 H     468  INH468      0.2220
     24  O10      223.9300  -63.9810   -5.5320 O.3   468  INH468     -0.3900
     25  H11      223.7920  -63.3140   -6.1950 H     468  INH468      0.2100
     26  O11      225.8920  -65.8210   -5.7140 O.3   468  INH468     -0.3880
     27  H12      226.4920  -66.5550   -5.7680 H     468  INH468      0.2100
     28  N3       223.8280  -68.4090   -7.1980 N.pl3 468  INH468     -0.2970
     29  C1       224.6220  -68.7870   -8.2570 C.3   468  INH468      0.1880
     30  N1       224.0240  -69.5760   -9.1090 N.pl3 468  INH468     -0.3450
     31  C2       222.7470  -69.7380   -8.5850 C.2   468  INH468      0.1470
     32  H1       224.4060  -69.9810   -9.9630 H     468  INH468      0.1670
     33  C4       221.6330  -70.4980   -9.0650 C.2   468  INH468      0.2900
     34  C3       222.6040  -69.0210   -7.4040 C.2   468  INH468      0.1590
     35  N4       220.5290  -70.3800   -8.2200 N.am  468  INH468     -0.1540
     36  O5       221.5540  -71.1970  -10.0810 O.2   468  INH468     -0.2650
     37  C5       220.4890  -69.6360   -7.0670 C.3   468  INH468      0.6800
     38  H8       219.7010  -70.8790   -8.4740 H     468  INH468      0.1870
     39  N2       221.5130  -68.9240   -6.6020 N.pl3 468  INH468     -0.1740
     40  N5       219.3240  -69.6570   -6.4000 N.3   468  INH468     -0.2340
     41  H2       221.4810  -68.3720   -5.7440 H     468  INH468      0.1860
     42  H10      219.1370  -69.1680   -5.5480 H     468  INH468      0.1740
     43  H9       218.6750  -70.2370   -6.8910 H     468  INH468      0.1740
@<TRIPOS>BOND
     1    36    33    2
     2    32    30    1
     3    30    31    1
     4    30    29    1
     5    33    31    1
     6    33    35   am
     7    31    34    2
     8    38    35    1
     9    29    28    1
    10    35    37    1
    11    34    28    1
    12    34    39    1
    13    28     4    1
    14    37    39    1
    15    37    40    1
    16    43    40    1
    17    39    41    1
    18     2     4    1
    19     2     1    1
    20     2    26    1
    21    40    42    1
    22    25    24    1
    23     4     5    1
    24     1    24    1
    25     1     3    1
    26    27    26    1
    27     5     3    1
    28     3     6    1
    29     6     7    1
    30    16    15    1
    31    21    20    1
    32    15    13    1
    33    19    18    2
    34    20    18    1
    35     9     8    2
    36     7     8    1
    37    18    22    1
    38    18    17    1
    39     8    12    1
    40     8    10    1
    41    13    14    2
    42    13    17    1
    43    13    12    1
    44    22    23    1
    45    10    11    1
