@<TRIPOS>MOLECULE
/tmp/ewbell/vina_2ilz_2ilz_lig/vina/vina1.pdbqt
 43 45 0 0 0
SMALL
GASTEIGER

@<TRIPOS>ATOM
      1  C6       233.9010  -54.0010    3.8370 C.3   468  INH468      0.1820
      2  C7       232.7360  -53.3780    4.6160 C.3   468  INH468      0.1980
      3  C8       234.3980  -52.8410    3.0000 C.3   468  INH468      0.1800
      4  C9       232.2110  -52.3240    3.6280 C.3   468  INH468      0.2620
      5  O9       233.2160  -52.0760    2.6700 O.3   468  INH468     -0.3530
      6  C10      235.1390  -53.1700    1.7300 C.3   468  INH468      0.2150
      7  O12      234.8280  -54.4810    1.3430 O.3   468  INH468     -0.2940
      8  P2       235.5020  -55.1470    0.0400 P.3   468  INH468      0.4010
      9  O3       235.3550  -56.6180    0.0330 O.2   468  INH468     -0.6310
     10  O7       237.0600  -54.7440    0.0810 O.3   468  INH468     -0.3070
     11  H        237.2640  -54.3320    0.9350 H     468  INH468      0.2220
     12  O14      234.9940  -54.4680   -1.3330 O.3   468  INH468     -0.1950
     13  P3       235.7280  -54.4080   -2.7750 P.3   468  INH468      0.4100
     14  O4       234.8630  -54.0970   -3.9370 O.2   468  INH468     -0.6310
     15  O8       236.8310  -53.2530   -2.5500 O.3   468  INH468     -0.3070
     16  H        237.5710  -53.6090   -2.0330 H     468  INH468      0.2220
     17  O13      236.4610  -55.8320   -2.9500 O.3   468  INH468     -0.1950
     18  P1       235.9790  -57.0430   -3.8990 P.3   468  INH468      0.3990
     19  O1       234.7180  -57.6300   -3.0980 O.2   468  INH468     -0.6310
     20  O2       235.3240  -56.4430   -5.2370 O.3   468  INH468     -0.3070
     21  H        235.1230  -57.1680   -5.8510 H     468  INH468      0.2220
     22  O6       236.9790  -58.1070   -4.1410 O.3   468  INH468     -0.3070
     23  H        237.8370  -57.7040   -4.3470 H     468  INH468      0.2220
     24  O10      234.9710  -54.3810    4.6930 O.3   468  INH468     -0.3900
     25  H11      235.7780  -54.4210    4.1940 H     468  INH468      0.2100
     26  O11      233.1500  -52.7370    5.8110 O.3   468  INH468     -0.3880
     27  H12      232.9030  -53.2680    6.5580 H     468  INH468      0.2100
     28  N3       230.9540  -52.6110    2.9250 N.pl3 468  INH468     -0.2970
     29  C1       229.6890  -52.3310    3.3930 C.3   468  INH468      0.1880
     30  N1       228.7350  -52.6910    2.5770 N.pl3 468  INH468     -0.3450
     31  C2       229.4040  -53.2440    1.4920 C.2   468  INH468      0.1470
     32  H1       227.7280  -52.5890    2.7070 H     468  INH468      0.1670
     33  C4       228.9000  -53.8070    0.2770 C.2   468  INH468      0.2900
     34  C3       230.7780  -53.2070    1.6900 C.2   468  INH468      0.1590
     35  N4       229.9330  -54.2510   -0.5500 N.am  468  INH468     -0.1540
     36  O5       227.7270  -53.9320   -0.0900 O.2   468  INH468     -0.2650
     37  C5       231.2720  -54.1710   -0.2580 C.3   468  INH468      0.6800
     38  H8       229.6780  -54.6600   -1.4250 H     468  INH468      0.1870
     39  N2       231.7620  -53.6500    0.8650 N.pl3 468  INH468     -0.1740
     40  N5       232.1020  -54.6610   -1.1920 N.3   468  INH468     -0.2340
     41  H2       232.7570  -53.5910    1.0800 H     468  INH468      0.1860
     42  H10      233.1010  -54.6760   -1.1280 H     468  INH468      0.1740
     43  H9       231.5650  -55.0080   -1.9600 H     468  INH468      0.1740
@<TRIPOS>BOND
     1    21    20    1
     2    20    18    1
     3    23    22    1
     4    22    18    1
     5    14    13    2
     6    18    19    2
     7    18    17    1
     8    17    13    1
     9    13    15    1
    10    13    12    1
    11    15    16    1
    12    43    40    1
    13    38    35    1
    14    12     8    1
    15    40    42    1
    16    40    37    1
    17    35    37    1
    18    35    33   am
    19    37    39    1
    20    36    33    2
    21     9     8    2
    22     8    10    1
    23     8     7    1
    24    10    11    1
    25    33    31    1
    26    39    41    1
    27    39    34    1
    28     7     6    1
    29    31    34    2
    30    31    30    1
    31    34    28    1
    32     6     3    1
    33    30    32    1
    34    30    29    1
    35     5     3    1
    36     5     4    1
    37    28    29    1
    38    28     4    1
    39     3     1    1
    40     4     2    1
    41     1     2    1
    42     1    24    1
    43    25    24    1
    44     2    26    1
    45    26    27    1
