@<TRIPOS>MOLECULE
/tmp/ewbell/vina_2ilz_2ilz_lig/vina/vina5.pdbqt
 43 45 0 0 0
SMALL
GASTEIGER

@<TRIPOS>ATOM
      1  C6       233.2980  -54.6240    3.8860 C.3   468  INH468      0.1820
      2  C7       232.2670  -54.4530    5.0080 C.3   468  INH468      0.1980
      3  C8       233.8280  -53.2170    3.7050 C.3   468  INH468      0.1800
      4  C9       231.7600  -53.0220    4.7690 C.3   468  INH468      0.2620
      5  O9       232.6990  -52.3500    3.9580 O.3   468  INH468     -0.3530
      6  C10      234.4250  -52.8680    2.3670 C.3   468  INH468      0.2150
      7  O12      233.4010  -52.4670    1.4980 O.3   468  INH468     -0.2940
      8  P2       233.4150  -52.8900   -0.0570 P.3   468  INH468      0.4010
      9  O3       234.2290  -51.9640   -0.8740 O.2   468  INH468     -0.6310
     10  O7       231.8810  -52.8620   -0.5460 O.3   468  INH468     -0.3070
     11  H        231.8150  -52.3520   -1.3680 H     468  INH468      0.2220
     12  O14      233.8300  -54.4340   -0.2740 O.3   468  INH468     -0.1950
     13  P3       235.1460  -55.0460   -0.9910 P.3   468  INH468      0.4100
     14  O4       236.4510  -54.5360   -0.5110 O.2   468  INH468     -0.6310
     15  O8       234.9960  -56.6250   -0.6910 O.3   468  INH468     -0.3070
     16  H        234.3910  -57.0210   -1.3380 H     468  INH468      0.2220
     17  O13      234.9490  -54.7730   -2.5670 O.3   468  INH468     -0.1950
     18  P1       235.9910  -55.1480   -3.7380 P.3   468  INH468      0.3990
     19  O1       236.9040  -53.8320   -3.8250 O.2   468  INH468     -0.6310
     20  O2       237.0090  -56.2720   -3.2050 O.3   468  INH468     -0.3070
     21  H        236.5070  -57.0490   -2.9110 H     468  INH468      0.2220
     22  O6       235.3940  -55.4530   -5.0570 O.3   468  INH468     -0.3070
     23  H        235.4540  -56.4060   -5.2270 H     468  INH468      0.2220
     24  O10      234.3970  -55.4300    4.2920 O.3   468  INH468     -0.3900
     25  H11      234.1170  -56.3350    4.3660 H     468  INH468      0.2100
     26  O11      232.8390  -54.5380    6.3030 O.3   468  INH468     -0.3880
     27  H12      233.2550  -55.3850    6.4110 H     468  INH468      0.2100
     28  N3       230.4260  -52.8590    4.1750 N.pl3 468  INH468     -0.2970
     29  C1       229.2720  -53.4680    4.6130 C.3   468  INH468      0.1880
     30  N1       228.2150  -53.1600    3.9090 N.pl3 468  INH468     -0.3450
     31  C2       228.6930  -52.2870    2.9400 C.2   468  INH468      0.1470
     32  H1       227.2580  -53.4860    4.0420 H     468  INH468      0.1670
     33  C4       228.0100  -51.6050    1.8830 C.2   468  INH468      0.2900
     34  C3       230.0610  -52.0900    3.0850 C.2   468  INH468      0.1590
     35  N4       228.8830  -50.8160    1.1340 N.am  468  INH468     -0.1540
     36  O5       226.8120  -51.6420    1.5860 O.2   468  INH468     -0.2650
     37  C5       230.2320  -50.6900    1.3590 C.3   468  INH468      0.6800
     38  H8       228.4960  -50.2980    0.3710 H     468  INH468      0.1870
     39  N2       230.8860  -51.3140    2.3360 N.pl3 468  INH468     -0.1740
     40  N5       230.8910  -49.8800    0.5170 N.3   468  INH468     -0.2340
     41  H2       231.8880  -51.2200    2.5030 H     468  INH468      0.1860
     42  H10      231.8720  -49.6860    0.5490 H     468  INH468      0.1740
     43  H9       230.2460  -49.5010   -0.1470 H     468  INH468      0.1740
@<TRIPOS>BOND
     1    23    22    1
     2    22    18    1
     3    19    18    2
     4    18    20    1
     5    18    17    1
     6    20    21    1
     7    17    13    1
     8    11    10    1
     9    16    15    1
    10    13    15    1
    11    13    14    2
    12    13    12    1
    13     9     8    2
    14    10     8    1
    15    12     8    1
    16    43    40    1
    17     8     7    1
    18    38    35    1
    19    40    42    1
    20    40    37    1
    21    35    37    1
    22    35    33   am
    23    37    39    1
    24     7     6    1
    25    36    33    2
    26    33    31    1
    27    39    41    1
    28    39    34    1
    29     6     3    1
    30    31    34    2
    31    31    30    1
    32    34    28    1
    33     3     1    1
    34     3     5    1
    35     1    24    1
    36     1     2    1
    37    30    32    1
    38    30    29    1
    39     5     4    1
    40    28    29    1
    41    28     4    1
    42    24    25    1
    43     4     2    1
    44     2    26    1
    45    26    27    1
