@<TRIPOS>MOLECULE
/tmp/ewbell/vina_2ilz_2ilz_lig/vina/vina2.pdbqt
 43 45 0 0 0
SMALL
GASTEIGER

@<TRIPOS>ATOM
      1  C6       233.2150  -53.5800    4.6140 C.3   468  INH468      0.1820
      2  C7       231.8780  -53.0110    5.1040 C.3   468  INH468      0.1980
      3  C8       233.8480  -52.3900    3.9230 C.3   468  INH468      0.1800
      4  C9       231.5560  -51.9630    4.0280 C.3   468  INH468      0.2620
      5  O9       232.7460  -51.6640    3.3320 O.3   468  INH468     -0.3530
      6  C10      234.8760  -52.6730    2.8590 C.3   468  INH468      0.2150
      7  O12      234.2650  -52.6030    1.6000 O.3   468  INH468     -0.2940
      8  P2       235.0490  -53.0570    0.2670 P.3   468  INH468      0.4010
      9  O3       236.5140  -53.0730    0.4660 O.2   468  INH468     -0.6310
     10  O7       234.6530  -51.9930   -0.8740 O.3   468  INH468     -0.3070
     11  H        234.6600  -52.4310   -1.7390 H     468  INH468      0.2220
     12  O14      234.4910  -54.4470   -0.3330 O.3   468  INH468     -0.1950
     13  P3       234.1180  -54.8230   -1.8630 P.3   468  INH468      0.4100
     14  O4       233.9080  -56.2600   -2.1520 O.2   468  INH468     -0.6310
     15  O8       232.7610  -53.9820   -2.1000 O.3   468  INH468     -0.3070
     16  H        232.5980  -53.8950   -3.0530 H     468  INH468      0.2220
     17  O13      235.3030  -54.2060   -2.7640 O.3   468  INH468     -0.1950
     18  P1       236.1510  -54.9890   -3.8900 P.3   468  INH468      0.3990
     19  O1       237.3020  -53.9320   -4.2540 O.2   468  INH468     -0.6310
     20  O2       236.9580  -56.1970   -3.2050 O.3   468  INH468     -0.3070
     21  H        237.2360  -56.8280   -3.8890 H     468  INH468      0.2220
     22  O6       235.4010  -55.3770   -5.1050 O.3   468  INH468     -0.3070
     23  H        235.5400  -56.3200   -5.2830 H     468  INH468      0.2220
     24  O10      234.0700  -53.9340    5.6940 O.3   468  INH468     -0.3900
     25  H11      233.6580  -54.6120    6.2160 H     468  INH468      0.2100
     26  O11      231.9770  -52.3740    6.3670 O.3   468  INH468     -0.3880
     27  H12      232.7810  -51.8700    6.4060 H     468  INH468      0.2100
     28  N3       230.5090  -52.2840    3.0500 N.pl3 468  INH468     -0.2970
     29  C1       229.3030  -51.6320    2.9200 C.3   468  INH468      0.1880
     30  N1       228.5430  -52.1150    1.9740 N.pl3 468  INH468     -0.3450
     31  C2       229.2890  -53.1560    1.4340 C.2   468  INH468      0.1470
     32  H1       227.6140  -51.8010    1.6950 H     468  INH468      0.1670
     33  C4       228.9920  -54.0560    0.3620 C.2   468  INH468      0.2900
     34  C3       230.5090  -53.2790    2.0890 C.2   468  INH468      0.1590
     35  N4       230.0350  -54.9580    0.1460 N.am  468  INH468     -0.1540
     36  O5       227.9790  -54.1140   -0.3410 O.2   468  INH468     -0.2650
     37  C5       231.2090  -54.9990    0.8570 C.3   468  INH468      0.6800
     38  H8       229.9190  -55.6280   -0.5860 H     468  INH468      0.1870
     39  N2       231.5060  -54.1710    1.8560 N.pl3 468  INH468     -0.1740
     40  N5       232.0810  -55.9500    0.4880 N.3   468  INH468     -0.2340
     41  H2       232.3790  -54.2020    2.3830 H     468  INH468      0.1860
     42  H10      232.9760  -56.1080    0.9070 H     468  INH468      0.1740
     43  H9       231.6950  -56.4740   -0.2710 H     468  INH468      0.1740
@<TRIPOS>BOND
     1    23    22    1
     2    22    18    1
     3    19    18    2
     4    18    20    1
     5    18    17    1
     6    21    20    1
     7    16    15    1
     8    17    13    1
     9    14    13    2
    10    15    13    1
    11    13    12    1
    12    11    10    1
    13    10     8    1
    14    38    35    1
    15    36    33    2
    16    12     8    1
    17    43    40    1
    18    35    33   am
    19    35    37    1
    20     8     9    2
    21     8     7    1
    22    33    31    1
    23    40    37    1
    24    40    42    1
    25    37    39    1
    26    31    30    1
    27    31    34    2
    28     7     6    1
    29    32    30    1
    30    39    34    1
    31    39    41    1
    32    30    29    1
    33    34    28    1
    34     6     3    1
    35    29    28    1
    36    28     4    1
    37     5     3    1
    38     5     4    1
    39     3     1    1
    40     4     2    1
    41     1     2    1
    42     1    24    1
    43     2    26    1
    44    24    25    1
    45    26    27    1
