@<TRIPOS>MOLECULE
./ligand/2pyy_lig.pdb
 18 17 0 0 0
SMALL
GASTEIGER

@<TRIPOS>ATOM
      1  N1        53.2820   21.0470   34.2300 N.4   660  INH660      0.2289
      2  C1        54.6110   21.4180   34.8000 C.3   660  INH660      0.0790
      3  C2        54.5400   22.8220   35.4090 C.2   660  INH660      0.4026
      4  O1        55.2870   23.0940   36.3700 O.co2 660  INH660     -0.2400
      5  C3        55.6930   21.3900   33.7010 C.3   660  INH660      0.0111
      6  C4        57.0950   21.6210   34.2370 C.3   660  INH660      0.0548
      7  C5        58.1510   21.7090   33.1530 C.2   660  INH660      0.3562
      8  O2        59.3510   21.7900   33.5010 O.co2 660  INH660     -0.2464
      9  O3        57.7870   21.7060   31.9610 O.co2 660  INH660     -0.2464
     10  O4        53.7400   23.6430   34.9140 O.co2 660  INH660     -0.2400
     11  H1        52.6210   21.7870   34.4080 H     660  INH660      0.2002
     12  H2        54.8780   20.6960   35.5860 H     660  INH660      0.0970
     13  H3        55.4660   22.1760   32.9660 H     660  INH660      0.0331
     14  H4        55.6650   20.4070   33.2070 H     660  INH660      0.0331
     15  H5        57.3530   20.7880   34.9070 H     660  INH660      0.0381
     16  H6        57.1000   22.5630   34.8050 H     660  INH660      0.0381
     17  H7        52.9570   20.1960   34.6610 H     660  INH660      0.2002
     18  H8        53.3710   20.9060   33.2240 H     660  INH660      0.2002
@<TRIPOS>BOND
     1     9     7   ar
     2    13     5    1
     3     7     8   ar
     4     7     6    1
     5    14     5    1
     6    18     1    1
     7     5     6    1
     8     5     2    1
     9     1    11    1
    10     1    17    1
    11     1     2    1
    12     6    16    1
    13     6    15    1
    14     2     3    1
    15     2    12    1
    16    10     3   ar
    17     3     4   ar
