@<TRIPOS>MOLECULE
/tmp/ewbell/vina_2pyy_2pyy_lig/vina/vina1.pdbqt
 15 14 0 0 0
SMALL
GASTEIGER

@<TRIPOS>ATOM
      1  C1        54.4680   21.4230   35.3570 C.3   660  INH660      0.2800
      2  N1        53.3260   21.0550   34.4680 N.4   660  INH660     -0.0650
      3  H8        52.4480   21.2990   34.9260 H     660  INH660      0.2750
      4  H1        53.3460   20.0630   34.2880 H     660  INH660      0.2750
      5  H7        53.4030   21.5570   33.5980 H     660  INH660      0.2750
      6  C3        55.7680   20.7550   34.8630 C.3   660  INH660      0.0540
      7  C4        56.1330   21.1380   33.4390 C.3   660  INH660      0.1120
      8  C5        57.6110   21.4110   33.2440 C.2   660  INH660      0.1390
      9  O3        58.0700   21.4180   32.0860 O.2   660  INH660     -0.6500
     10  O2        58.3130   21.6250   34.2590 O.3   660  INH660     -0.7760
     11  H         58.5490   22.5020   34.4870 H     660  INH660      0.1670
     12  C2        54.6490   22.9440   35.3660 C.2   660  INH660      0.1710
     13  O4        55.4850   23.4370   36.1520 O.2   660  INH660     -0.6480
     14  O1        53.9530   23.6330   34.5940 O.3   660  INH660     -0.7750
     15  H         54.1620   24.5360   34.4540 H     660  INH660      0.1670
@<TRIPOS>BOND
     1     9     8    2
     2     8     7    1
     3     8    10    1
     4     7     6    1
     5     5     2    1
     6    10    11    1
     7     4     2    1
     8    15    14    1
     9     2     3    1
    10     2     1    1
    11    14    12    1
    12     6     1    1
    13     1    12    1
    14    12    13    2
