@<TRIPOS>MOLECULE
/tmp/ewbell/vina_2pyy_2pyy_lig/vina/vina3.pdbqt
 15 14 0 0 0
SMALL
GASTEIGER

@<TRIPOS>ATOM
      1  C1        54.9040   21.5090   34.7690 C.3   660  INH660      0.2800
      2  N1        55.7550   22.5990   35.3340 N.4   660  INH660     -0.0650
      3  H8        55.2300   23.4720   35.3390 H     660  INH660      0.2750
      4  H1        56.5820   22.7070   34.7680 H     660  INH660      0.2750
      5  H7        56.0230   22.3610   36.2770 H     660  INH660      0.2750
      6  C3        55.6820   20.7260   33.6910 C.3   660  INH660      0.0540
      7  C4        56.5690   21.6100   32.8340 C.3   660  INH660      0.1120
      8  C5        58.0500   21.3440   33.0190 C.2   660  INH660      0.1390
      9  O3        58.6490   20.6720   32.1570 O.2   660  INH660     -0.6500
     10  O2        58.6150   21.8170   34.0310 O.3   660  INH660     -0.7760
     11  H         58.1150   22.0070   34.8000 H     660  INH660      0.1670
     12  C2        54.4780   20.5520   35.8860 C.2   660  INH660      0.1710
     13  O4        55.3410   20.1780   36.7080 O.2   660  INH660     -0.6480
     14  O1        53.2900   20.1760   35.9300 O.3   660  INH660     -0.7750
     15  H         52.6780   20.6220   36.4830 H     660  INH660      0.1670
@<TRIPOS>BOND
     1     9     8    2
     2     7     8    1
     3     7     6    1
     4     8    10    1
     5     6     1    1
     6    10    11    1
     7     4     2    1
     8     1     2    1
     9     1    12    1
    10     2     3    1
    11     2     5    1
    12    12    14    1
    13    12    13    2
    14    14    15    1
