@<TRIPOS>MOLECULE
/tmp/ewbell/vina_2pyy_2pyy_lig/vina/vina5.pdbqt
 15 14 0 0 0
SMALL
GASTEIGER

@<TRIPOS>ATOM
      1  C1        65.5970   26.3410   35.9180 C.3   660  INH660      0.2800
      2  N1        66.7290   25.6270   36.5790 N.4   660  INH660     -0.0650
      3  H8        67.4580   25.4370   35.8930 H     660  INH660      0.2750
      4  H1        66.3980   24.7570   36.9660 H     660  INH660      0.2750
      5  H7        67.1030   26.2020   37.3180 H     660  INH660      0.2750
      6  C3        64.3600   26.3550   36.8400 C.3   660  INH660      0.0540
      7  C4        64.7040   26.6120   38.2970 C.3   660  INH660      0.1120
      8  C5        63.9840   27.8080   38.8880 C.2   660  INH660      0.1390
      9  O3        63.2610   27.6360   39.8890 O.2   660  INH660     -0.6500
     10  O2        64.1510   28.9250   38.3490 O.3   660  INH660     -0.7760
     11  H         65.0010   29.1740   38.0420 H     660  INH660      0.1670
     12  C2        66.0090   27.7820   35.5980 C.2   660  INH660      0.1710
     13  O4        65.1110   28.6380   35.4550 O.2   660  INH660     -0.6480
     14  O1        67.2230   28.0450   35.4850 O.3   660  INH660     -0.7750
     15  H         67.4980   28.9250   35.3210 H     660  INH660      0.1670
@<TRIPOS>BOND
     1    15    14    1
     2    13    12    2
     3    14    12    1
     4    12     1    1
     5     3     2    1
     6     1     2    1
     7     1     6    1
     8     2     4    1
     9     2     5    1
    10     6     7    1
    11    11    10    1
    12     7     8    1
    13    10     8    1
    14     8     9    2
