@<TRIPOS>MOLECULE
/tmp/ewbell/vina_2pyy_2pyy_lig/vina/vina4.pdbqt
 15 14 0 0 0
SMALL
GASTEIGER

@<TRIPOS>ATOM
      1  C1        62.1760   13.3730   25.5940 C.3   660  INH660      0.2800
      2  N1        63.4120   12.9130   24.8940 N.4   660  INH660     -0.0650
      3  H8        63.5340   11.9120   25.0440 H     660  INH660      0.2750
      4  H1        64.2100   13.4070   25.2620 H     660  INH660      0.2750
      5  H7        63.3280   13.0980   23.9070 H     660  INH660      0.2750
      6  C3        61.6390   12.2630   26.5200 C.3   660  INH660      0.0540
      7  C4        60.1850   11.9130   26.2540 C.3   660  INH660      0.1120
      8  C5        59.2270   12.4800   27.2830 C.2   660  INH660      0.1390
      9  O3        59.6460   13.3470   28.0750 O.2   660  INH660     -0.6500
     10  O2        58.0490   12.0580   27.2910 O.3   660  INH660     -0.7760
     11  H         57.5810   11.9930   28.1010 H     660  INH660      0.1670
     12  C2        62.4840   14.6230   26.4230 C.2   660  INH660      0.1710
     13  O4        63.6730   14.9920   26.5210 O.2   660  INH660     -0.6480
     14  O1        61.5390   15.2220   26.9740 O.3   660  INH660     -0.7750
     15  H         61.3760   15.0990   27.8890 H     660  INH660      0.1670
@<TRIPOS>BOND
     1     5     2    1
     2     2     3    1
     3     2     4    1
     4     2     1    1
     5     1    12    1
     6     1     6    1
     7     7     6    1
     8     7     8    1
     9    12    13    2
    10    12    14    1
    11    14    15    1
    12     8    10    1
    13     8     9    2
    14    10    11    1
