@<TRIPOS>MOLECULE
/tmp/ewbell/vina_2pyy_2pyy_lig/vina/vina2.pdbqt
 15 14 0 0 0
SMALL
GASTEIGER

@<TRIPOS>ATOM
      1  C1        56.3730   21.7910   33.4790 C.3   660  INH660      0.2800
      2  N1        55.7080   21.7230   32.1430 N.4   660  INH660     -0.0650
      3  H8        55.5100   22.6660   31.8140 H     660  INH660      0.2750
      4  H1        54.8460   21.2070   32.2230 H     660  INH660      0.2750
      5  H7        56.3180   21.2590   31.4880 H     660  INH660      0.2750
      6  C3        55.7620   20.7460   34.4350 C.3   660  INH660      0.0540
      7  C4        54.4680   21.2110   35.0800 C.3   660  INH660      0.1120
      8  C5        54.4430   22.6960   35.3860 C.2   660  INH660      0.1390
      9  O3        55.1080   23.1190   36.3510 O.2   660  INH660     -0.6500
     10  O2        53.7570   23.4400   34.6490 O.3   660  INH660     -0.7760
     11  H         53.1630   24.0570   35.0300 H     660  INH660      0.1670
     12  C2        57.8730   21.5240   33.3250 C.2   660  INH660      0.1710
     13  O4        58.6240   21.7860   34.2880 O.2   660  INH660     -0.6480
     14  O1        58.2910   21.0630   32.2440 O.3   660  INH660     -0.7750
     15  H         59.0890   20.5730   32.2210 H     660  INH660      0.1670
@<TRIPOS>BOND
     1     5     2    1
     2     3     2    1
     3     2     4    1
     4     2     1    1
     5    15    14    1
     6    14    12    1
     7    12     1    1
     8    12    13    2
     9     1     6    1
    10     6     7    1
    11    10    11    1
    12    10     8    1
    13     7     8    1
    14     8     9    2
