@<TRIPOS>MOLECULE
./ligand/2oiq_lig.pdb
 70 74 0 0 0
SMALL
GASTEIGER

@<TRIPOS>ATOM
      1  C1       -11.1220  -38.3790    4.6200 C.ar  270  INH270     -0.0430
      2  C2        -9.7790  -38.3860    5.1300 C.ar  270  INH270     -0.0497
      3  C3        -1.0090  -29.7530    6.8310 C.ar  270  INH270     -0.0492
      4  C4         0.3270  -30.9070    8.6230 C.ar  270  INH270     -0.0492
      5  C5         0.0370  -28.7610    6.6940 C.ar  270  INH270     -0.0528
      6  C6         1.3410  -29.9390    8.4860 C.ar  270  INH270     -0.0528
      7  C7        -3.4860  -35.1870   11.4650 C.ar  270  INH270     -0.0553
      8  C8        -2.5540  -34.2550   10.8850 C.ar  270  INH270     -0.0401
      9  C9        -6.8940  -38.2340    6.2310 C.ar  270  INH270     -0.0174
     10  C10       -4.1170  -33.8700    8.9950 C.ar  270  INH270     -0.0190
     11  C11      -11.9780  -37.2840    4.9760 C.ar  270  INH270      0.0276
     12  C12       -5.6290  -38.0610    6.8560 C.ar  270  INH270      0.0332
     13  C13      -10.2170  -36.2370    6.3060 C.ar  270  INH270      0.0367
     14  C14       -9.2980  -37.3120    5.9840 C.ar  270  INH270      0.0186
     15  C15       -0.8600  -30.8410    7.8060 C.ar  270  INH270      0.0370
     16  C16        1.2290  -28.8560    7.5320 C.ar  270  INH270     -0.0029
     17  C17       -4.7380  -35.4710   10.8230 C.ar  270  INH270     -0.0291
     18  C18       -2.8490  -33.5860    9.6540 C.ar  270  INH270      0.0354
     19  C19       -5.0470  -34.7870    9.5530 C.ar  270  INH270      0.0383
     20  C20       -7.9150  -37.2720    6.5440 C.ar  270  INH270      0.0775
     21  C21       -6.4260  -36.0960    8.0030 C.ar  270  INH270      0.2200
     22  C22       -1.9080  -31.9060    7.9800 C.2   270  INH270      0.2483
     23  C23        5.3100  -29.8900    5.9360 C.3   270  INH270      0.0092
     24  C24        6.2650  -27.8480    7.0440 C.3   270  INH270      0.0092
     25  C25        3.8780  -29.3120    6.1010 C.3   270  INH270      0.0098
     26  C26        4.8180  -27.2860    7.1930 C.3   270  INH270      0.0098
     27  C27       -5.6940  -36.4790   11.5050 C.3   270  INH270     -0.0380
     28  C28        7.7060  -29.2570    5.6640 C.3   270  INH270     -0.0427
     29  C29        2.3970  -27.8610    7.4480 C.3   270  INH270     -0.0055
     30  N1       -11.5040  -36.2560    5.8020 N.ar  270  INH270     -0.2626
     31  N2        -5.4180  -37.0020    7.7260 N.ar  270  INH270     -0.2226
     32  N3        -7.6360  -36.2430    7.4180 N.ar  270  INH270     -0.2142
     33  N4        -6.2570  -35.0200    8.8790 N.pl3 270  INH270     -0.2833
     34  N5        -1.8690  -32.6710    9.1410 N.am  270  INH270     -0.2814
     35  N6         6.3280  -28.7710    5.8300 N.4   270  INH270      0.2405
     36  N7         3.7840  -28.4040    7.2950 N.4   270  INH270      0.2460
     37  O1        -2.7290  -32.0460    7.0730 O.2   270  INH270     -0.2699
     38  H1       -11.4780  -39.1770    3.9850 H     270  INH270      0.0633
     39  H2        -9.1170  -39.2010    4.8750 H     270  INH270      0.0625
     40  H3        -1.8960  -29.6930    6.2180 H     270  INH270      0.0625
     41  H4         0.4390  -31.7030    9.3440 H     270  INH270      0.0625
     42  H5        -0.0640  -27.9580    5.9790 H     270  INH270      0.0622
     43  H6         2.2220  -30.0060    9.1070 H     270  INH270      0.0622
     44  H7        -3.2400  -35.6790   12.3950 H     270  INH270      0.0621
     45  H8        -1.6180  -34.0580   11.3860 H     270  INH270      0.0636
     46  H9        -7.0800  -39.0520    5.5510 H     270  INH270      0.0654
     47  H10       -4.3540  -33.3740    8.0650 H     270  INH270      0.0655
     48  H11      -12.9920  -37.2520    4.6060 H     270  INH270      0.0829
     49  H12       -4.8290  -38.7570    6.6520 H     270  INH270      0.0831
     50  H13       -9.8960  -35.4230    6.9390 H     270  INH270      0.0836
     51  H14        5.3490  -30.5000    5.0210 H     270  INH270      0.0868
     52  H15        5.5490  -30.5050    6.8160 H     270  INH270      0.0868
     53  H16        6.5350  -28.4130    7.9490 H     270  INH270      0.0868
     54  H17        6.9710  -27.0150    6.9090 H     270  INH270      0.0868
     55  H18        3.6210  -28.7380    5.1980 H     270  INH270      0.0868
     56  H19        3.1810  -30.1500    6.2480 H     270  INH270      0.0868
     57  H20        4.7690  -26.6760    8.1070 H     270  INH270      0.0868
     58  H21        4.5890  -26.6870    6.2990 H     270  INH270      0.0868
     59  H22       -5.9210  -37.2990   10.8080 H     270  INH270      0.0278
     60  H23       -5.2140  -36.8870   12.4070 H     270  INH270      0.0278
     61  H24       -6.6270  -35.9670   11.7850 H     270  INH270      0.0278
     62  H25        7.9260  -29.3780    4.5930 H     270  INH270      0.0778
     63  H26        8.4060  -28.5300    6.1020 H     270  INH270      0.0778
     64  H27        7.8170  -30.2260    6.1730 H     270  INH270      0.0778
     65  H28        2.3870  -27.2840    8.3840 H     270  INH270      0.0867
     66  H29        2.2160  -27.3000    6.5190 H     270  INH270      0.0867
     67  H30       -7.0230  -34.3950    9.0310 H     270  INH270      0.1550
     68  H31       -1.0430  -32.5690    9.6960 H     270  INH270      0.1551
     69  H32        6.0820  -28.2630    5.0050 H     270  INH270      0.2035
     70  H33        3.9860  -28.9360    8.1170 H     270  INH270      0.2041
@<TRIPOS>BOND
     1     1     2   ar
     2     1    38    1
     3     1    11   ar
     4     2    14   ar
     5     2    39    1
     6     3     5   ar
     7     3    40    1
     8     3    15   ar
     9     4    41    1
    10     4    15   ar
    11     4     6   ar
    12     5    16   ar
    13     5    42    1
    14     6    43    1
    15     6    16   ar
    16     7     8   ar
    17     7    44    1
    18     7    17   ar
    19     8    18   ar
    20     8    45    1
    21     9    12   ar
    22     9    46    1
    23     9    20   ar
    24    10    18   ar
    25    10    19   ar
    26    10    47    1
    27    11    48    1
    28    11    30   ar
    29    12    31   ar
    30    12    49    1
    31    13    14   ar
    32    13    30   ar
    33    13    50    1
    34    14    20    1
    35    15    22    1
    36    16    29    1
    37    17    27    1
    38    17    19   ar
    39    18    34    1
    40    19    33    1
    41    20    32   ar
    42    21    33    1
    43    21    32   ar
    44    21    31   ar
    45    22    37    2
    46    22    34   am
    47    23    25    1
    48    23    52    1
    49    23    51    1
    50    23    35    1
    51    24    35    1
    52    24    54    1
    53    24    53    1
    54    24    26    1
    55    25    36    1
    56    25    56    1
    57    25    55    1
    58    26    36    1
    59    26    58    1
    60    26    57    1
    61    27    61    1
    62    27    60    1
    63    27    59    1
    64    28    35    1
    65    28    64    1
    66    28    63    1
    67    28    62    1
    68    29    66    1
    69    29    65    1
    70    29    36    1
    71    33    67    1
    72    34    68    1
    73    35    69    1
    74    36    70    1
