@<TRIPOS>MOLECULE
/tmp/ewbell/vina_2oiq_2oiq_lig/vina/vina2.pdbqt
 44 48 0 0 0
SMALL
GASTEIGER

@<TRIPOS>ATOM
      1  C7        -5.9300  -40.2390    1.6810 C.ar  270  INH270      0.0110
      2  C8        -4.7630  -40.4700    2.4910 C.ar  270  INH270      0.0300
      3  C10       -5.9810  -42.2390    3.7380 C.ar  270  INH270      0.0600
      4  C17       -7.1300  -41.0010    1.8840 C.ar  270  INH270     -0.0350
      5  C18       -4.7660  -41.4630    3.5230 C.ar  270  INH270      0.0370
      6  C19       -7.1410  -42.0240    2.9470 C.ar  270  INH270      0.0570
      7  C27       -8.3450  -40.7030    0.9730 C.3   270  INH270      0.0500
      8  N5        -3.5630  -41.6340    4.2880 N.am  270  INH270     -0.3230
      9  C22       -3.1400  -40.9450    5.4200 C.2   270  INH270      0.2560
     10  O1        -2.0800  -41.1490    6.0120 O.2   270  INH270     -0.2670
     11  H31       -2.9420  -42.3480    3.9620 H     270  INH270      0.1690
     12  C15       -4.0510  -39.8860    5.9780 C.ar  270  INH270      0.0320
     13  C3        -5.4230  -39.7000    5.4870 C.ar  270  INH270      0.0170
     14  C5        -6.2530  -38.6550    6.0500 C.ar  270  INH270      0.0100
     15  C16       -5.7130  -37.8000    7.1030 C.ar  270  INH270     -0.0330
     16  C6        -4.3590  -38.0140    7.5660 C.ar  270  INH270      0.0100
     17  C4        -3.5460  -39.0280    7.0230 C.ar  270  INH270      0.0170
     18  C29       -6.5120  -36.6580    7.7490 C.3   270  INH270      0.2730
     19  N7        -5.8320  -35.8050    8.7750 N.4   270  INH270     -0.0640
     20  C25       -5.4160  -36.6230    9.9650 C.3   270  INH270      0.2630
     21  C23       -4.7170  -35.7490   11.0420 C.3   270  INH270      0.2620
     22  N6        -3.5190  -35.0310   10.4510 N.4   270  INH270     -0.0720
     23  C24       -3.9220  -34.1760    9.2530 C.3   270  INH270      0.2620
     24  C28       -2.8100  -34.1900   11.4280 C.3   270  INH270      0.2690
     25  H32       -2.8930  -35.7530   10.1580 H     270  INH270      0.2790
     26  C26       -4.6270  -35.0730    8.1900 C.3   270  INH270      0.2630
     27  H33       -6.4930  -35.1180    9.0760 H     270  INH270      0.2800
     28  N4        -8.2830  -42.8030    3.1920 N.pl3 270  INH270     -0.1910
     29  C21       -9.5500  -42.2360    3.3570 C.3   270  INH270      0.6830
     30  N3        -9.6150  -40.9900    3.8770 N.pl3 270  INH270     -0.1910
     31  N2       -10.7170  -42.8980    3.0200 N.3   270  INH270     -0.2020
     32  C20      -10.8120  -40.3380    4.0880 C.2   270  INH270      0.0620
     33  H3        -8.7470  -40.5130    4.1210 H     270  INH270      0.1840
     34  C9       -12.0460  -40.9930    3.7510 C.2   270  INH270      0.0480
     35  C12      -11.9550  -42.3030    3.2060 C.3   270  INH270      0.1080
     36  H2       -10.6650  -43.8390    2.6300 H     270  INH270      0.1830
     37  H30       -8.1860  -43.7970    3.2520 H     270  INH270      0.1840
     38  C14      -10.7280  -38.9690    4.6770 C.2   270  INH270      0.0070
     39  C2        -9.6550  -38.5490    5.5640 C.3   270  INH270      0.0160
     40  C1        -9.6190  -37.2170    6.1000 C.2   270  INH270      0.0180
     41  C11      -10.6700  -36.3090    5.7370 C.2   270  INH270      0.0870
     42  N1       -11.6970  -36.7250    4.8800 N.pl3 270  INH270     -0.3740
     43  C13      -11.7570  -38.0000    4.3500 C.2   270  INH270      0.1010
     44  H1       -12.4310  -36.0600    4.6370 H     270  INH270      0.1640
@<TRIPOS>BOND
     1     7     4    1
     2     1     4   ar
     3     1     2   ar
     4     4     6   ar
     5     2     5   ar
     6    36    31    1
     7     6    28    1
     8     6     3   ar
     9    31    35    1
    10    31    29    1
    11    28    37    1
    12    28    29    1
    13    35    34    1
    14    29    30    1
    15     5     3   ar
    16     5     8    1
    17    34    32    2
    18    30    32    1
    19    30    33    1
    20    11     8    1
    21    32    38    1
    22     8     9   am
    23    43    38    2
    24    43    42    1
    25    44    42    1
    26    38    39    1
    27    42    41    1
    28     9    12    1
    29     9    10    2
    30    13    12   ar
    31    13    14   ar
    32    39    40    1
    33    41    40    2
    34    12    17   ar
    35    14    15   ar
    36    17    16   ar
    37    15    16   ar
    38    15    18    1
    39    18    19    1
    40    26    19    1
    41    26    23    1
    42    19    27    1
    43    19    20    1
    44    23    22    1
    45    20    21    1
    46    25    22    1
    47    22    21    1
    48    22    24    1
