@<TRIPOS>MOLECULE
/tmp/ewbell/vina_2oiq_2oiq_lig/vina/vina1.pdbqt
 44 48 0 0 0
SMALL
GASTEIGER

@<TRIPOS>ATOM
      1  C7        -6.2850  -39.9050    0.9770 C.ar  270  INH270      0.0110
      2  C8        -7.5500  -40.3980    1.4540 C.ar  270  INH270      0.0300
      3  C10       -6.4900  -42.5710    2.0170 C.ar  270  INH270      0.0600
      4  C17       -5.1120  -40.7320    1.0150 C.ar  270  INH270     -0.0350
      5  C18       -7.6760  -41.7250    1.9770 C.ar  270  INH270      0.0370
      6  C19       -5.2340  -42.1010    1.5510 C.ar  270  INH270      0.0570
      7  C27       -3.7830  -40.1350    0.4910 C.3   270  INH270      0.0500
      8  N5        -8.9710  -42.1420    2.4330 N.am  270  INH270     -0.3230
      9  C22       -9.7570  -41.6070    3.4480 C.2   270  INH270      0.2560
     10  O1       -10.8600  -42.0370    3.7850 O.2   270  INH270     -0.2670
     11  H31       -9.3640  -42.9280    1.9540 H     270  INH270      0.1690
     12  C15       -9.2330  -40.4000    4.1780 C.ar  270  INH270      0.0320
     13  C3        -8.0410  -40.4630    5.0330 C.ar  270  INH270      0.0170
     14  C5        -7.5870  -39.2750    5.7250 C.ar  270  INH270      0.0100
     15  C16       -8.3250  -38.0250    5.5610 C.ar  270  INH270     -0.0330
     16  C6        -9.4930  -37.9970    4.7070 C.ar  270  INH270      0.0100
     17  C4        -9.9390  -39.1500    4.0310 C.ar  270  INH270      0.0170
     18  C29       -7.9300  -36.7180    6.2650 C.3   270  INH270      0.2730
     19  N7        -6.7050  -36.7160    7.1270 N.4   270  INH270     -0.0640
     20  C25       -6.1960  -35.3180    7.3360 C.3   270  INH270      0.2630
     21  C23       -4.9200  -35.3020    8.2210 C.3   270  INH270      0.2620
     22  N6        -5.1880  -35.9710    9.5560 N.4   270  INH270     -0.0720
     23  C24       -5.6860  -37.4010    9.3670 C.3   270  INH270      0.2620
     24  C28       -4.0160  -35.9810   10.4440 C.3   270  INH270      0.2690
     25  H32       -5.8980  -35.4200    9.9930 H     270  INH270      0.2790
     26  C26       -6.9620  -37.3920    8.4710 C.3   270  INH270      0.2630
     27  H33       -6.0040  -37.2420    6.6470 H     270  INH270      0.2800
     28  N4        -4.1220  -42.9560    1.6170 N.pl3 270  INH270     -0.1910
     29  C21       -3.4110  -43.1630    2.8030 C.3   270  INH270      0.6830
     30  N3        -3.3750  -42.1490    3.6960 N.pl3 270  INH270     -0.1910
     31  N2        -2.7480  -44.3440    3.0820 N.3   270  INH270     -0.2020
     32  C20       -2.6980  -42.2420    4.8930 C.2   270  INH270      0.0620
     33  H3        -3.8680  -41.2830    3.4760 H     270  INH270      0.1840
     34  C9        -1.9970  -43.4530    5.2200 C.2   270  INH270      0.0480
     35  C12       -2.0480  -44.5070    4.2680 C.3   270  INH270      0.1080
     36  H2        -2.7750  -45.1070    2.4060 H     270  INH270      0.1830
     37  H30       -3.8300  -43.4330    0.7880 H     270  INH270      0.1840
     38  C14       -2.7400  -41.0380    5.7750 C.2   270  INH270      0.0070
     39  C2        -3.8940  -40.1570    5.8650 C.3   270  INH270      0.0160
     40  C1        -3.8830  -39.0130    6.7320 C.2   270  INH270      0.0180
     41  C11       -2.7050  -38.7610    7.5120 C.2   270  INH270      0.0870
     42  N1        -1.6000  -39.6190    7.4190 N.pl3 270  INH270     -0.3740
     43  C13       -1.5830  -40.7260    6.5920 C.2   270  INH270      0.1010
     44  H1        -0.7760  -39.4180    7.9850 H     270  INH270      0.1640
@<TRIPOS>BOND
     1     7     4    1
     2    37    28    1
     3     1     4   ar
     4     1     2   ar
     5     4     6   ar
     6     2     5   ar
     7     6    28    1
     8     6     3   ar
     9    28    29    1
    10    11     8    1
    11     5     3   ar
    12     5     8    1
    13    36    31    1
    14     8     9   am
    15    29    31    1
    16    29    30    1
    17    31    35    1
    18     9    10    2
    19     9    12    1
    20    33    30    1
    21    30    32    1
    22    17    12   ar
    23    17    16   ar
    24    12    13   ar
    25    35    34    1
    26    16    15   ar
    27    32    34    2
    28    32    38    1
    29    13    14   ar
    30    15    14   ar
    31    15    18    1
    32    38    39    1
    33    38    43    2
    34    39    40    1
    35    18    19    1
    36    43    42    1
    37    27    19    1
    38    40    41    2
    39    19    20    1
    40    19    26    1
    41    20    21    1
    42    42    41    1
    43    42    44    1
    44    21    22    1
    45    26    23    1
    46    23    22    1
    47    22    25    1
    48    22    24    1
