@<TRIPOS>MOLECULE
/tmp/ewbell/vina_2oiq_2oiq_lig/vina/vina4.pdbqt
 44 48 0 0 0
SMALL
GASTEIGER

@<TRIPOS>ATOM
      1  C7        -4.8200  -42.8930    4.3050 C.ar  270  INH270      0.0110
      2  C8        -5.9250  -42.5540    3.4470 C.ar  270  INH270      0.0300
      3  C10       -5.8230  -40.2050    4.2420 C.ar  270  INH270      0.0600
      4  C17       -4.2040  -41.8980    5.1360 C.ar  270  INH270     -0.0350
      5  C18       -6.4410  -41.2200    3.3990 C.ar  270  INH270      0.0370
      6  C19       -4.7310  -40.5210    5.0940 C.ar  270  INH270      0.0570
      7  C27       -3.0160  -42.3300    6.0300 C.3   270  INH270      0.0500
      8  N5        -7.5450  -40.9620    2.5180 N.am  270  INH270     -0.3230
      9  C22       -7.5480  -40.8340    1.1330 C.2   270  INH270      0.2560
     10  O1        -8.5460  -40.5990    0.4510 O.2   270  INH270     -0.2670
     11  H31       -8.4370  -40.8620    2.9610 H     270  INH270      0.1690
     12  C15       -6.2420  -41.0130    0.4080 C.ar  270  INH270      0.0320
     13  C3        -5.2290  -39.9520    0.3540 C.ar  270  INH270      0.0170
     14  C5        -3.9930  -40.1710   -0.3690 C.ar  270  INH270      0.0100
     15  C16       -3.7720  -41.4510   -1.0360 C.ar  270  INH270     -0.0330
     16  C6        -4.7900  -42.4770   -0.9590 C.ar  270  INH270      0.0100
     17  C4        -5.9930  -42.2690   -0.2570 C.ar  270  INH270      0.0170
     18  C29       -2.5020  -41.7710   -1.8390 C.3   270  INH270      0.2730
     19  N7        -1.2030  -41.8800   -1.1020 N.4   270  INH270     -0.0640
     20  C25       -1.1180  -43.1760   -0.3470 C.3   270  INH270      0.2630
     21  C23        0.2220  -43.2970    0.4300 C.3   270  INH270      0.2620
     22  N6         1.4000  -43.1590   -0.5150 N.4   270  INH270     -0.0720
     23  C24        1.3460  -41.8380   -1.2770 C.3   270  INH270      0.2620
     24  C28        2.7010  -43.2720    0.1630 C.3   270  INH270      0.2690
     25  H32        1.3210  -43.9230   -1.1540 H     270  INH270      0.2790
     26  C26       -0.0080  -41.7360   -2.0430 C.3   270  INH270      0.2630
     27  H33       -1.1700  -41.1260   -0.4470 H     270  INH270      0.2800
     28  N4        -4.1690  -39.5030    5.8810 N.pl3 270  INH270     -0.1910
     29  C21       -4.9520  -38.6430    6.6560 C.3   270  INH270      0.6830
     30  N3        -6.2020  -38.3700    6.2200 N.pl3 270  INH270     -0.1910
     31  N2        -4.4950  -38.0660    7.8280 N.3   270  INH270     -0.2020
     32  C20       -7.0560  -37.5300    6.9020 C.2   270  INH270      0.0620
     33  H3        -6.5250  -38.8010    5.3550 H     270  INH270      0.1840
     34  C9        -6.6180  -36.9110    8.1240 C.2   270  INH270      0.0480
     35  C12       -5.3010  -37.2120    8.5650 C.3   270  INH270      0.1080
     36  H2        -3.5510  -38.2720    8.1550 H     270  INH270      0.1830
     37  H30       -3.1750  -39.3900    5.8870 H     270  INH270      0.1840
     38  C14       -8.4020  -37.3160    6.2950 C.2   270  INH270      0.0070
     39  C2        -8.9840  -38.2160    5.3120 C.3   270  INH270      0.0160
     40  C1       -10.2860  -37.9660    4.7600 C.2   270  INH270      0.0180
     41  C11      -11.0020  -36.8040    5.2060 C.2   270  INH270      0.0870
     42  N1       -10.4320  -35.9450    6.1560 N.pl3 270  INH270     -0.3740
     43  C13       -9.1810  -36.1610    6.7020 C.2   270  INH270      0.1010
     44  H1       -10.9620  -35.1280    6.4570 H     270  INH270      0.1640
@<TRIPOS>BOND
     1    26    23    1
     2    26    19    1
     3    18    19    1
     4    18    15    1
     5    23    22    1
     6    25    22    1
     7    19    27    1
     8    19    20    1
     9    15    16   ar
    10    15    14   ar
    11    16    17   ar
    12    22    24    1
    13    22    21    1
    14    14    13   ar
    15    20    21    1
    16    17    12   ar
    17    13    12   ar
    18    12     9    1
    19    10     9    2
    20     9     8   am
    21     8    11    1
    22     8     5    1
    23     5     2   ar
    24     5     3   ar
    25     2     1   ar
    26     3     6   ar
    27     1     4   ar
    28    40    41    2
    29    40    39    1
    30     6     4   ar
    31     6    28    1
    32     4     7    1
    33    41    42    1
    34    39    38    1
    35    33    30    1
    36    28    37    1
    37    28    29    1
    38    42    44    1
    39    42    43    1
    40    30    29    1
    41    30    32    1
    42    38    43    2
    43    38    32    1
    44    29    31    1
    45    32    34    2
    46    31    36    1
    47    31    35    1
    48    34    35    1
