@<TRIPOS>MOLECULE
/tmp/ewbell/vina_2oiq_2oiq_lig/vina/vina5.pdbqt
 44 48 0 0 0
SMALL
GASTEIGER

@<TRIPOS>ATOM
      1  C7        -5.3800  -40.3130   -0.0920 C.ar  270  INH270      0.0110
      2  C8        -5.8060  -39.5600    1.0580 C.ar  270  INH270      0.0300
      3  C10       -7.3590  -41.3930    1.6820 C.ar  270  INH270      0.0600
      4  C17       -5.9320  -41.6090   -0.3680 C.ar  270  INH270     -0.0350
      5  C18       -6.7920  -40.0790    1.9570 C.ar  270  INH270      0.0370
      6  C19       -6.9500  -42.1500    0.5520 C.ar  270  INH270      0.0570
      7  C27       -5.4240  -42.3660   -1.6200 C.3   270  INH270      0.0500
      8  N5        -7.1640  -39.2670    3.0810 N.am  270  INH270     -0.3230
      9  C22       -6.7650  -39.3760    4.4090 C.2   270  INH270      0.2560
     10  O1        -7.1450  -38.6390    5.3200 O.2   270  INH270     -0.2670
     11  H31       -7.7970  -38.5190    2.8810 H     270  INH270      0.1690
     12  C15       -5.7830  -40.4600    4.7610 C.ar  270  INH270      0.0320
     13  C3        -6.2130  -41.8260    5.0860 C.ar  270  INH270      0.0170
     14  C5        -5.2270  -42.8280    5.4320 C.ar  270  INH270      0.0100
     15  C16       -3.8120  -42.4640    5.4510 C.ar  270  INH270     -0.0330
     16  C6        -3.4230  -41.1100    5.1210 C.ar  270  INH270      0.0100
     17  C4        -4.3780  -40.1310    4.7840 C.ar  270  INH270      0.0170
     18  C29       -2.6960  -43.4530    5.8190 C.3   270  INH270      0.2730
     19  N7        -1.6150  -42.9920    6.7470 N.4   270  INH270     -0.0640
     20  C25       -1.7570  -43.6300    8.1000 C.3   270  INH270      0.2630
     21  C23       -0.6470  -43.1530    9.0760 C.3   270  INH270      0.2620
     22  N6         0.7270  -43.4380    8.5010 N.4   270  INH270     -0.0720
     23  C24        0.9020  -42.7810    7.1340 C.3   270  INH270      0.2620
     24  C28        1.8230  -43.0140    9.3850 C.3   270  INH270      0.2690
     25  H32        0.7770  -44.4320    8.4070 H     270  INH270      0.2790
     26  C26       -0.2260  -43.2690    6.1760 C.3   270  INH270      0.2630
     27  H33       -1.7130  -42.0030    6.8490 H     270  INH270      0.2800
     28  N4        -7.5260  -43.4130    0.3370 N.pl3 270  INH270     -0.1910
     29  C21       -7.0920  -44.5540    1.0180 C.3   270  INH270      0.6830
     30  N3        -5.7970  -44.6000    1.4020 N.pl3 270  INH270     -0.1910
     31  N2        -7.9270  -45.6200    1.3000 N.3   270  INH270     -0.2020
     32  C20       -5.2620  -45.6790    2.0730 C.2   270  INH270      0.0620
     33  H3        -5.1920  -43.8080    1.1860 H     270  INH270      0.1840
     34  C9        -6.0980  -46.8070    2.3840 C.2   270  INH270      0.0480
     35  C12       -7.4570  -46.7370    1.9730 C.3   270  INH270      0.1080
     36  H2        -8.9040  -45.5840    1.0090 H     270  INH270      0.1830
     37  H30       -8.2690  -43.4980   -0.3260 H     270  INH270      0.1840
     38  C14       -3.8140  -45.5920    2.4230 C.2   270  INH270      0.0070
     39  C2        -2.9100  -44.6160    1.8360 C.3   270  INH270      0.0160
     40  C1        -1.5250  -44.5730    2.2110 C.2   270  INH270      0.0180
     41  C11       -1.0540  -45.5170    3.1840 C.2   270  INH270      0.0870
     42  N1        -1.9350  -46.4520    3.7450 N.pl3 270  INH270     -0.3740
     43  C13       -3.2720  -46.5170    3.4010 C.2   270  INH270      0.1010
     44  H1        -1.5750  -47.1110    4.4350 H     270  INH270      0.1640
@<TRIPOS>BOND
     1     7     4    1
     2     4     1   ar
     3     4     6   ar
     4    37    28    1
     5     1     2   ar
     6    28     6    1
     7    28    29    1
     8     6     3   ar
     9    36    31    1
    10    29    31    1
    11    29    30    1
    12     2     5   ar
    13    33    30    1
    14    31    35    1
    15    30    32    1
    16     3     5   ar
    17    39    40    1
    18    39    38    1
    19     5     8    1
    20    35    34    1
    21    32    34    2
    22    32    38    1
    23    40    41    2
    24    38    43    2
    25    11     8    1
    26     8     9   am
    27    41    42    1
    28    43    42    1
    29    42    44    1
    30     9    12    1
    31     9    10    2
    32    12    17   ar
    33    12    13   ar
    34    17    16   ar
    35    13    14   ar
    36    16    15   ar
    37    14    15   ar
    38    15    18    1
    39    18    19    1
    40    26    19    1
    41    26    23    1
    42    19    27    1
    43    19    20    1
    44    23    22    1
    45    20    21    1
    46    25    22    1
    47    22    21    1
    48    22    24    1
