@<TRIPOS>MOLECULE
/tmp/ewbell/vina_2oiq_2oiq_lig/vina/vina3.pdbqt
 44 48 0 0 0
SMALL
GASTEIGER

@<TRIPOS>ATOM
      1  C7       -10.4220  -42.8460    3.1560 C.ar  270  INH270      0.0110
      2  C8        -9.2240  -42.4500    2.4640 C.ar  270  INH270      0.0300
      3  C10      -10.4780  -40.6300    1.3330 C.ar  270  INH270      0.0600
      4  C17      -11.6570  -42.1430    2.9480 C.ar  270  INH270     -0.0350
      5  C18       -9.2280  -41.3470    1.5510 C.ar  270  INH270      0.0370
      6  C19      -11.6700  -41.0070    2.0070 C.ar  270  INH270      0.0570
      7  C27      -12.9060  -42.6190    3.7290 C.3   270  INH270      0.0500
      8  N5        -7.9920  -41.0140    0.9010 N.am  270  INH270     -0.3230
      9  C22       -6.9510  -40.2120    1.3570 C.2   270  INH270      0.2560
     10  O1        -5.9240  -39.9670    0.7240 O.2   270  INH270     -0.2670
     11  H31       -7.8600  -41.4160   -0.0060 H     270  INH270      0.1690
     12  C15       -7.0780  -39.6120    2.7300 C.ar  270  INH270      0.0320
     13  C3        -8.1140  -38.6240    3.0580 C.ar  270  INH270      0.0170
     14  C5        -8.1820  -38.0680    4.3930 C.ar  270  INH270      0.0100
     15  C16       -7.2160  -38.5000    5.3990 C.ar  270  INH270     -0.0330
     16  C6        -6.2110  -39.4780    5.0440 C.ar  270  INH270      0.0100
     17  C4        -6.1400  -40.0230    3.7470 C.ar  270  INH270      0.0170
     18  C29       -7.2000  -37.9560    6.8360 C.3   270  INH270      0.2730
     19  N7        -6.2270  -36.8700    7.1740 N.4   270  INH270     -0.0640
     20  C25       -6.9400  -35.5890    7.5020 C.3   270  INH270      0.2630
     21  C23       -5.9410  -34.4500    7.8460 C.3   270  INH270      0.2620
     22  N6        -5.0410  -34.8600    8.9950 N.4   270  INH270     -0.0720
     23  C24       -4.2880  -36.1490    8.6750 C.3   270  INH270      0.2620
     24  C28       -4.0740  -33.8180    9.3720 C.3   270  INH270      0.2690
     25  H32       -5.6510  -35.0080    9.7730 H     270  INH270      0.2790
     26  C26       -5.3100  -37.2740    8.3270 C.3   270  INH270      0.2630
     27  H33       -5.6570  -36.7200    6.3670 H     270  INH270      0.2800
     28  N4       -12.8460  -40.2790    1.7640 N.pl3 270  INH270     -0.1910
     29  C21      -13.7510  -40.6400    0.7620 C.3   270  INH270      0.6830
     30  N3       -13.2600  -41.2660   -0.3300 N.pl3 270  INH270     -0.1910
     31  N2       -15.1060  -40.3740    0.8470 N.3   270  INH270     -0.2020
     32  C20      -14.0620  -41.6600   -1.3800 C.2   270  INH270      0.0620
     33  H3       -12.2590  -41.4550   -0.3790 H     270  INH270      0.1840
     34  C9       -15.4750  -41.4020   -1.3300 C.2   270  INH270      0.0480
     35  C12      -15.9710  -40.7420   -0.1720 C.3   270  INH270      0.1080
     36  H2       -15.4750  -39.9000    1.6710 H     270  INH270      0.1830
     37  H30      -13.0410  -39.4760    2.3270 H     270  INH270      0.1840
     38  C14      -13.3770  -42.3330   -2.5230 C.2   270  INH270      0.0070
     39  C2       -12.4040  -43.4000   -2.3510 C.3   270  INH270      0.0160
     40  C1       -11.7760  -44.0160   -3.4860 C.2   270  INH270      0.0180
     41  C11      -12.1350  -43.5540   -4.7960 C.2   270  INH270      0.0870
     42  N1       -13.0760  -42.5270   -4.9500 N.pl3 270  INH270     -0.3740
     43  C13      -13.6940  -41.9150   -3.8760 C.2   270  INH270      0.1010
     44  H1       -13.3140  -42.2180   -5.8920 H     270  INH270      0.1640
@<TRIPOS>BOND
     1    44    42    1
     2    42    41    1
     3    42    43    1
     4    41    40    2
     5    43    38    2
     6    40    39    1
     7    38    39    1
     8    38    32    1
     9    32    34    2
    10    32    30    1
    11    34    35    1
    12    33    30    1
    13    30    29    1
    14    35    31    1
    15    11     8    1
    16    10     9    2
    17    29    31    1
    18    29    28    1
    19    31    36    1
    20     8     9   am
    21     8     5    1
    22     3     5   ar
    23     3     6   ar
    24     9    12    1
    25     5     2   ar
    26    28     6    1
    27    28    37    1
    28     6     4   ar
    29     2     1   ar
    30    12    13   ar
    31    12    17   ar
    32     4     1   ar
    33     4     7    1
    34    13    14   ar
    35    17    16   ar
    36    14    15   ar
    37    16    15   ar
    38    15    18    1
    39    27    19    1
    40    18    19    1
    41    19    20    1
    42    19    26    1
    43    20    21    1
    44    21    22    1
    45    26    23    1
    46    23    22    1
    47    22    24    1
    48    22    25    1
