@<TRIPOS>MOLECULE
./ligand/1toi_lig.pdb
 20 20 0 0 0
SMALL
GASTEIGER

@<TRIPOS>ATOM
      1  C1        73.2820   53.7340   34.1950 C.2   797  INH797      0.3563
      2  O1        72.1530   54.1970   34.0410 O.co2 797  INH797     -0.2464
      3  O2        73.4290   52.5530   34.7740 O.co2 797  INH797     -0.2464
      4  C2        74.5300   54.4900   33.7870 C.3   797  INH797      0.0531
      5  C3        74.4080   55.0380   32.3640 C.3   797  INH797     -0.0175
      6  C4        74.6950   53.9180   31.3790 C.ar  797  INH797     -0.0468
      7  C5        75.9190   53.8980   30.7100 C.ar  797  INH797     -0.0586
      8  C6        76.2060   52.8910   29.7890 C.ar  797  INH797     -0.0615
      9  C7        75.2750   51.8780   29.5680 C.ar  797  INH797     -0.0617
     10  C8        74.0540   51.8800   30.2440 C.ar  797  INH797     -0.0615
     11  C9        73.7600   52.8970   31.1500 C.ar  797  INH797     -0.0586
     12  H1        75.3930   53.8100   33.8360 H     797  INH797      0.0382
     13  H2        74.6840   55.3290   34.4820 H     797  INH797      0.0382
     14  H3        75.1330   55.8520   32.2180 H     797  INH797      0.0318
     15  H4        73.3900   55.4200   32.2020 H     797  INH797      0.0318
     16  H5        76.6530   54.6710   30.9080 H     797  INH797      0.0620
     17  H6        77.1460   52.8960   29.2490 H     797  INH797      0.0618
     18  H7        75.5010   51.0830   28.8660 H     797  INH797      0.0618
     19  H8        73.3340   51.0900   30.0640 H     797  INH797      0.0618
     20  H9        72.8120   52.9000   31.6760 H     797  INH797      0.0620
@<TRIPOS>BOND
     1    18     9    1
     2    17     8    1
     3     9     8   ar
     4     9    10   ar
     5     8     7   ar
     6    19    10    1
     7    10    11   ar
     8     7    16    1
     9     7     6   ar
    10    11     6   ar
    11    11    20    1
    12     6     5    1
    13    15     5    1
    14    14     5    1
    15     5     4    1
    16     4    12    1
    17     4     1    1
    18     4    13    1
    19     2     1   ar
    20     1     3   ar
