@<TRIPOS>MOLECULE
/tmp/ewbell/vina_1toi_1toi_lig/vina/vina3.pdbqt
 12 12 0 0 0
SMALL
GASTEIGER

@<TRIPOS>ATOM
      1  C4        74.3060   54.1070   31.7510 C.ar  797  INH797     -0.0580
      2  C5        73.5300   53.0550   32.2390 C.ar  797  INH797      0.0070
      3  C6        73.0800   53.0600   33.5590 C.ar  797  INH797      0.0010
      4  C7        73.4440   54.1070   34.4040 C.ar  797  INH797      0.0000
      5  C8        74.2330   55.1560   33.9300 C.ar  797  INH797      0.0010
      6  C9        74.6660   55.1600   32.6060 C.ar  797  INH797      0.0070
      7  C3        74.7670   54.0780   30.3040 C.3   797  INH797      0.0490
      8  C2        76.2720   53.8060   30.2690 C.3   797  INH797      0.1140
      9  C1        76.6760   53.1110   28.9840 C.2   797  INH797      0.1390
     10  O1        76.4550   51.9190   28.7840 O.2   797  INH797     -0.6500
     11  O2        77.3250   53.8170   28.0720 O.3   797  INH797     -0.7760
     12  H         77.4330   54.7400   28.1830 H     797  INH797      0.1670
@<TRIPOS>BOND
     1    11    12    1
     2    11     9    1
     3    10     9    2
     4     9     8    1
     5     8     7    1
     6     7     1    1
     7     1     2   ar
     8     1     6   ar
     9     2     3   ar
    10     6     5   ar
    11     3     4   ar
    12     5     4   ar
