@<TRIPOS>MOLECULE
/tmp/ewbell/vina_1toi_1toi_lig/vina/vina1.pdbqt
 12 12 0 0 0
SMALL
GASTEIGER

@<TRIPOS>ATOM
      1  C4        74.9120   53.7350   31.1270 C.ar  797  INH797     -0.0580
      2  C5        73.9070   52.7710   31.0460 C.ar  797  INH797      0.0070
      3  C6        74.0090   51.7170   30.1390 C.ar  797  INH797      0.0010
      4  C7        75.1060   51.6520   29.2820 C.ar  797  INH797      0.0000
      5  C8        76.1090   52.6210   29.3440 C.ar  797  INH797      0.0010
      6  C9        76.0160   53.6630   30.2630 C.ar  797  INH797      0.0070
      7  C3        74.7790   54.8620   32.1370 C.3   797  INH797      0.0490
      8  C2        73.6060   54.5530   33.0700 C.3   797  INH797      0.1140
      9  C1        74.0820   53.9320   34.3670 C.2   797  INH797      0.1390
     10  O1        74.9570   54.4460   35.0610 O.2   797  INH797     -0.6500
     11  O2        73.5580   52.7720   34.7320 O.3   797  INH797     -0.7760
     12  H         72.6980   52.7420   35.1010 H     797  INH797      0.1670
@<TRIPOS>BOND
     1     4     5   ar
     2     4     3   ar
     3     5     6   ar
     4     3     2   ar
     5     6     1   ar
     6     2     1   ar
     7     1     7    1
     8     7     8    1
     9     8     9    1
    10     9    11    1
    11     9    10    2
    12    11    12    1
