@<TRIPOS>MOLECULE
/tmp/ewbell/vina_1toi_1toi_lig/vina/vina5.pdbqt
 12 12 0 0 0
SMALL
GASTEIGER

@<TRIPOS>ATOM
      1  C4        73.4940   53.1920   31.7420 C.ar  797  INH797     -0.0580
      2  C5        73.2640   52.9160   33.0900 C.ar  797  INH797      0.0070
      3  C6        73.6600   53.8200   34.0750 C.ar  797  INH797      0.0010
      4  C7        74.3250   54.9880   33.7070 C.ar  797  INH797      0.0000
      5  C8        74.5740   55.2660   32.3620 C.ar  797  INH797      0.0010
      6  C9        74.1610   54.3710   31.3770 C.ar  797  INH797      0.0070
      7  C3        73.0360   52.1930   30.6930 C.3   797  INH797      0.0490
      8  C2        73.9800   50.9890   30.7090 C.3   797  INH797      0.1140
      9  C1        73.2170   49.6930   30.8850 C.2   797  INH797      0.1390
     10  O1        73.4910   48.8830   31.7690 O.2   797  INH797     -0.6500
     11  O2        72.2510   49.4160   30.0240 O.3   797  INH797     -0.7760
     12  H         71.7640   50.1100   29.6260 H     797  INH797      0.1670
@<TRIPOS>BOND
     1    12    11    1
     2    11     9    1
     3     7     8    1
     4     7     1    1
     5     8     9    1
     6     9    10    2
     7     6     1   ar
     8     6     5   ar
     9     1     2   ar
    10     5     4   ar
    11     2     3   ar
    12     4     3   ar
