@<TRIPOS>MOLECULE
/tmp/ewbell/vina_1toi_1toi_lig/vina/vina2.pdbqt
 12 12 0 0 0
SMALL
GASTEIGER

@<TRIPOS>ATOM
      1  C4        73.5770   53.0060   31.1320 C.ar  797  INH797     -0.0580
      2  C5        74.4820   53.5960   30.2490 C.ar  797  INH797      0.0070
      3  C6        75.1050   52.8350   29.2610 C.ar  797  INH797      0.0010
      4  C7        74.8490   51.4670   29.1840 C.ar  797  INH797      0.0000
      5  C8        73.9580   50.8640   30.0730 C.ar  797  INH797      0.0010
      6  C9        73.3210   51.6290   31.0480 C.ar  797  INH797      0.0070
      7  C3        72.9040   53.8670   32.1870 C.3   797  INH797      0.0490
      8  C2        73.3860   53.4240   33.5700 C.3   797  INH797      0.1140
      9  C1        74.2390   54.4910   34.2240 C.2   797  INH797      0.1390
     10  O1        74.9580   54.2550   35.1920 O.2   797  INH797     -0.6500
     11  O2        74.1670   55.7240   33.7500 O.3   797  INH797     -0.7760
     12  H         74.8450   56.0530   33.1930 H     797  INH797      0.1670
@<TRIPOS>BOND
     1     4     3   ar
     2     4     5   ar
     3     3     2   ar
     4     5     6   ar
     5     2     1   ar
     6     6     1   ar
     7     1     7    1
     8     7     8    1
     9    12    11    1
    10     8     9    1
    11    11     9    1
    12     9    10    2
