@<TRIPOS>MOLECULE
/tmp/ewbell/vina_1toi_1toi_lig/vina/vina4.pdbqt
 12 12 0 0 0
SMALL
GASTEIGER

@<TRIPOS>ATOM
      1  C4        74.0010   52.8000   30.1830 C.ar  797  INH797     -0.0580
      2  C5        73.4340   52.6910   31.4540 C.ar  797  INH797      0.0070
      3  C6        73.0870   51.4430   31.9700 C.ar  797  INH797      0.0010
      4  C7        73.2740   50.3030   31.1910 C.ar  797  INH797      0.0000
      5  C8        73.8250   50.4020   29.9130 C.ar  797  INH797      0.0010
      6  C9        74.1890   51.6470   29.4050 C.ar  797  INH797      0.0070
      7  C3        74.3820   54.1730   29.6580 C.3   797  INH797      0.0490
      8  C2        75.1850   54.0030   28.3660 C.3   797  INH797      0.1140
      9  C1        76.6700   53.9050   28.6490 C.2   797  INH797      0.1390
     10  O1        77.4940   53.6780   27.7650 O.2   797  INH797     -0.6500
     11  O2        77.0750   54.0280   29.9030 O.3   797  INH797     -0.7760
     12  H         76.4610   54.2490   30.5750 H     797  INH797      0.1670
@<TRIPOS>BOND
     1    10     9    2
     2     8     9    1
     3     8     7    1
     4     9    11    1
     5     6     5   ar
     6     6     1   ar
     7     7     1    1
     8    11    12    1
     9     5     4   ar
    10     1     2   ar
    11     4     3   ar
    12     2     3   ar
