@<TRIPOS>MOLECULE
./ligand/2qbr_lig.pdb
 42 44 0 0 0
SMALL
GASTEIGER

@<TRIPOS>ATOM
      1  S1        44.9240   14.3230    0.6640 S.2   301  INH301     -0.0769
      2  C1        45.0960   15.6460    1.7300 C.ar  301  INH301      0.1436
      3  C2        45.9700   15.2890    2.7910 C.ar  301  INH301      0.1570
      4  C3        46.4440   13.9560    2.6530 C.ar  301  INH301      0.0751
      5  C4        45.9450   13.2820    1.5090 C.ar  301  INH301      0.0378
      6  C5        44.4140   16.8590    1.4850 C.2   301  INH301      0.3966
      7  O1        44.4470   17.7800    2.2990 O.co2 301  INH301     -0.2399
      8  O2        43.7890   16.9570    0.4240 O.co2 301  INH301     -0.2399
      9  C6        46.2010   11.8870    1.0260 C.ar  301  INH301     -0.0084
     10  C7        47.5180   11.3150    1.0600 C.ar  301  INH301     -0.0326
     11  C8        47.7370    9.9830    0.6010 C.ar  301  INH301      0.0280
     12  C9        46.6290    9.2030    0.0970 C.ar  301  INH301     -0.0408
     13  C10       45.3100    9.7660    0.0560 C.ar  301  INH301     -0.0594
     14  C11       45.1080   11.1050    0.5240 C.ar  301  INH301     -0.0534
     15 Br1        47.6320   13.1870    3.9130 Br    301  INH301     -0.0453
     16  O3        46.3660   16.1140    3.9000 O.3   301  INH301     -0.4781
     17  C12       47.5820   16.8460    3.7100 C.3   301  INH301      0.1902
     18  C13       47.9420   17.5920    4.9940 C.2   301  INH301      0.3927
     19  O4        47.1630   17.5430    5.9630 O.co2 301  INH301     -0.2425
     20  O5        49.0030   18.2220    5.0270 O.co2 301  INH301     -0.2425
     21  N1        49.0320    9.5000    0.6690 N.pl3 301  INH301     -0.3397
     22  C14       49.4040    8.0820    0.8060 C.3   301  INH301      0.0344
     23  C15       49.4490    7.6120    2.2450 C.ar  301  INH301     -0.0304
     24  C16       48.2330    7.1950    2.8950 C.ar  301  INH301     -0.0571
     25  C17       48.2680    6.7450    4.2530 C.ar  301  INH301     -0.0615
     26  C18       49.5260    6.7190    4.9440 C.ar  301  INH301     -0.0617
     27  C19       50.7460    7.1350    4.3000 C.ar  301  INH301     -0.0615
     28  C20       50.7060    7.5850    2.9370 C.ar  301  INH301     -0.0571
     29  H1        48.3500   11.8990    1.4370 H     301  INH301      0.0642
     30  H2        46.7950    8.1900   -0.2510 H     301  INH301      0.0636
     31  H3        44.4770    9.1860   -0.3240 H     301  INH301      0.0618
     32  H4        44.1130   11.5340    0.4980 H     301  INH301      0.0624
     33  H5        47.4490   17.5690    2.8920 H     301  INH301      0.0817
     34  H6        48.3930   16.1480    3.4540 H     301  INH301      0.0817
     35  H7        49.7970   10.1880    0.6200 H     301  INH301      0.1464
     36  H8        50.3990    7.9370    0.3600 H     301  INH301      0.0511
     37  H9        48.6660    7.4730    0.2630 H     301  INH301      0.0511
     38  H10       47.2930    7.2220    2.3560 H     301  INH301      0.0621
     39  H11       47.3590    6.4290    4.7520 H     301  INH301      0.0618
     40  H12       49.5590    6.3790    5.9730 H     301  INH301      0.0618
     41  H13       51.6860    7.1090    4.8400 H     301  INH301      0.0618
     42  H14       51.6140    7.9010    2.4370 H     301  INH301      0.0621
@<TRIPOS>BOND
     1     1     5   ar
     2     1     2   ar
     3     2     6    1
     4     2     3   ar
     5     3    16    1
     6     3     4   ar
     7     4    15    1
     8     4     5   ar
     9     5     9    1
    10     6     8   ar
    11     6     7   ar
    12     9    14   ar
    13     9    10   ar
    14    10    29    1
    15    10    11   ar
    16    11    21    1
    17    11    12   ar
    18    12    30    1
    19    12    13   ar
    20    13    31    1
    21    13    14   ar
    22    14    32    1
    23    16    17    1
    24    17    34    1
    25    17    33    1
    26    17    18    1
    27    18    20   ar
    28    18    19   ar
    29    21    35    1
    30    21    22    1
    31    22    37    1
    32    22    36    1
    33    22    23    1
    34    23    28   ar
    35    23    24   ar
    36    24    38    1
    37    24    25   ar
    38    25    39    1
    39    25    26   ar
    40    26    40    1
    41    26    27   ar
    42    27    41    1
    43    27    28   ar
    44    28    42    1
