@<TRIPOS>MOLECULE
/tmp/ewbell/vina_2qbr_2qbr_lig/vina/vina3.pdbqt
 31 33 0 0 0
SMALL
GASTEIGER

@<TRIPOS>ATOM
      1  S1        44.3600   15.6000    1.5650 S.2   301  INH301     -0.0790
      2  C1        45.1580   16.0890    2.9950 C.ar  301  INH301      0.1130
      3  C2        46.1750   15.1500    3.3140 C.ar  301  INH301      0.1100
      4  C3        46.2350   14.0980    2.3600 C.ar  301  INH301      0.0450
      5  C4        45.2780   14.2080    1.3190 C.ar  301  INH301      0.0350
      6 Br1        47.4930   12.6900    2.5100 Br    301  INH301     -0.1620
      7  C6        45.0230   13.3090    0.1480 C.ar  301  INH301     -0.0150
      8  C11       44.7130   13.8880   -1.1280 C.ar  301  INH301      0.0130
      9  C10       44.4590   13.0640   -2.2720 C.ar  301  INH301      0.0030
     10  C9        44.5120   11.6370   -2.1310 C.ar  301  INH301      0.0290
     11  C8        44.8240   11.0440   -0.8500 C.ar  301  INH301      0.0290
     12  C7        45.0770   11.8800    0.2770 C.ar  301  INH301      0.0420
     13  N1        44.8900    9.6770   -0.6460 N.pl3 301  INH301     -0.3860
     14  H7        45.8220    9.2660   -0.4950 H     301  INH301      0.1600
     15  C14       43.7340    8.7640   -0.6260 C.3   301  INH301      0.1580
     16  C15       43.0800    8.5990   -1.9810 C.ar  301  INH301     -0.0410
     17  C20       41.6950    8.9410   -2.1400 C.ar  301  INH301      0.0090
     18  C19       41.0770    8.7790   -3.4260 C.ar  301  INH301      0.0010
     19  C18       41.8570    8.2770   -4.5290 C.ar  301  INH301      0.0000
     20  C17       43.2420    7.9330   -4.3710 C.ar  301  INH301      0.0010
     21  C16       43.8540    8.0980   -3.0870 C.ar  301  INH301      0.0090
     22  C5        44.7680   17.2680    3.6670 C.2   301  INH301      0.1860
     23  O2        44.5640   18.2750    2.9820 O.2   301  INH301     -0.6460
     24  O1        44.6410   17.2870    4.8910 O.3   301  INH301     -0.7720
     25  H         43.7890   17.3660    5.2720 H     301  INH301      0.1670
     26  O3        47.0650   15.1900    4.4420 O.3   301  INH301     -0.3360
     27  C12       48.2280   16.0090    4.2710 C.3   301  INH301      0.4180
     28  C13       48.1390   17.2310    5.1850 C.2   301  INH301      0.1660
     29  O5        47.1890   17.3070    5.9690 O.2   301  INH301     -0.6480
     30  O4        49.0180   18.1080    5.1120 O.3   301  INH301     -0.7750
     31  H         49.0230   18.7070    4.3920 H     301  INH301      0.1670
@<TRIPOS>BOND
     1    19    20   ar
     2    19    18   ar
     3    20    21   ar
     4    18    17   ar
     5    21    16   ar
     6     9    10   ar
     7     9     8   ar
     8    17    16   ar
     9    10    11   ar
    10    16    15    1
    11     8     7   ar
    12    11    13    1
    13    11    12   ar
    14    13    15    1
    15    13    14    1
    16     7    12   ar
    17     7     5    1
    18     5     1   ar
    19     5     4   ar
    20     1     2   ar
    21     4     6    1
    22     4     3   ar
    23    23    22    2
    24     2     3   ar
    25     2    22    1
    26     3    26    1
    27    22    24    1
    28    27    26    1
    29    27    28    1
    30    31    30    1
    31    24    25    1
    32    30    28    1
    33    28    29    2
