@<TRIPOS>MOLECULE
/tmp/ewbell/vina_2qbr_2qbr_lig/vina/vina4.pdbqt
 31 33 0 0 0
SMALL
GASTEIGER

@<TRIPOS>ATOM
      1  S1        44.4780   15.3980    1.6340 S.2   301  INH301     -0.0790
      2  C1        45.2140   15.9970    3.0540 C.ar  301  INH301      0.1130
      3  C2        46.2330   15.1020    3.4730 C.ar  301  INH301      0.1100
      4  C3        46.3450   13.9880    2.5970 C.ar  301  INH301      0.0450
      5  C4        45.4260   14.0100    1.5170 C.ar  301  INH301      0.0350
      6 Br1        47.6200   12.6170    2.8880 Br    301  INH301     -0.1620
      7  C6        45.2290   13.0290    0.4010 C.ar  301  INH301     -0.0150
      8  C11       44.8530   11.6800    0.7100 C.ar  301  INH301      0.0130
      9  C10       44.6580   10.7100   -0.3270 C.ar  301  INH301      0.0030
     10  C9        44.8470   11.1020   -1.6940 C.ar  301  INH301      0.0290
     11  C8        45.2260   12.4600   -2.0150 C.ar  301  INH301      0.0290
     12  C7        45.4130   13.4120   -0.9710 C.ar  301  INH301      0.0420
     13  N1        45.4250   12.9020   -3.3110 N.pl3 301  INH301     -0.3860
     14  H7        45.6770   12.1980   -4.0180 H     301  INH301      0.1600
     15  C14       45.3050   14.3000   -3.7600 C.3   301  INH301      0.1580
     16  C15       46.6250   15.0400   -3.7690 C.ar  301  INH301     -0.0410
     17  C20       47.8500   14.2980   -3.6750 C.ar  301  INH301      0.0090
     18  C19       49.0990   15.0050   -3.6800 C.ar  301  INH301      0.0010
     19  C18       49.1000   16.4420   -3.7790 C.ar  301  INH301      0.0000
     20  C17       47.8760   17.1860   -3.8730 C.ar  301  INH301      0.0010
     21  C16       46.6330   16.4780   -3.8690 C.ar  301  INH301      0.0090
     22  C5        44.7800   17.2120    3.6300 C.2   301  INH301      0.1860
     23  O2        44.5640   18.1590    2.8680 O.2   301  INH301     -0.6460
     24  O1        44.6300   17.3190    4.8460 O.3   301  INH301     -0.7720
     25  H         45.1580   17.9200    5.3330 H     301  INH301      0.1670
     26  O3        47.0800   15.2350    4.6280 O.3   301  INH301     -0.3360
     27  C12       48.2330   16.0640    4.4430 C.3   301  INH301      0.4180
     28  C13       48.1190   17.3110    5.3200 C.2   301  INH301      0.1660
     29  O5        49.0490   18.1210    5.3100 O.2   301  INH301     -0.6480
     30  O4        47.0990   17.4720    6.0160 O.3   301  INH301     -0.7750
     31  H         46.9820   16.9690    6.7980 H     301  INH301      0.1670
@<TRIPOS>BOND
     1    14    13    1
     2    20    21   ar
     3    20    19   ar
     4    21    16   ar
     5    19    18   ar
     6    16    15    1
     7    16    17   ar
     8    15    13    1
     9    18    17   ar
    10    13    11    1
    11    11    10   ar
    12    11    12   ar
    13    10     9   ar
    14    12     7   ar
    15     9     8   ar
    16     7     8   ar
    17     7     5    1
    18     5     1   ar
    19     5     4   ar
    20     1     2   ar
    21     4     6    1
    22     4     3   ar
    23    23    22    2
    24     2     3   ar
    25     2    22    1
    26     3    26    1
    27    22    24    1
    28    27    26    1
    29    27    28    1
    30    24    25    1
    31    29    28    2
    32    28    30    1
    33    30    31    1
