@<TRIPOS>MOLECULE
/tmp/ewbell/vina_2qbr_2qbr_lig/vina/vina2.pdbqt
 31 33 0 0 0
SMALL
GASTEIGER

@<TRIPOS>ATOM
      1  S1        50.1200    8.9490    0.4940 S.2   301  INH301     -0.0790
      2  C1        51.1210    7.8150    1.2890 C.ar  301  INH301      0.1130
      3  C2        50.4310    7.2750    2.4060 C.ar  301  INH301      0.1100
      4  C3        49.1250    7.8230    2.5300 C.ar  301  INH301      0.0450
      5  C4        48.8040    8.7790    1.5330 C.ar  301  INH301      0.0350
      6 Br1        47.9550    7.2990    3.9250 Br    301  INH301     -0.1620
      7  C6        47.5490    9.5720    1.3280 C.ar  301  INH301     -0.0150
      8  C11       46.4520    8.9810    0.6170 C.ar  301  INH301      0.0130
      9  C10       45.2360    9.7070    0.3980 C.ar  301  INH301      0.0030
     10  C9        45.1230   11.0480    0.8960 C.ar  301  INH301      0.0290
     11  C8        46.2230   11.6520    1.6140 C.ar  301  INH301      0.0290
     12  C7        47.4250   10.9140    1.8260 C.ar  301  INH301      0.0420
     13  N1        46.1800   12.9400    2.1190 N.pl3 301  INH301     -0.3860
     14  H7        45.5100   13.5930    1.6910 H     301  INH301      0.1600
     15  C14       47.0150   13.4490    3.2200 C.3   301  INH301      0.1580
     16  C15       46.9590   14.9550    3.3660 C.ar  301  INH301     -0.0410
     17  C20       48.0220   15.6360    4.0480 C.ar  301  INH301      0.0090
     18  C19       47.9620   17.0640    4.1870 C.ar  301  INH301      0.0010
     19  C18       46.8390   17.7830    3.6420 C.ar  301  INH301      0.0000
     20  C17       45.7740   17.1030    2.9600 C.ar  301  INH301      0.0010
     21  C16       45.8390   15.6790    2.8220 C.ar  301  INH301      0.0090
     22  C5        52.4230    7.5460    0.8090 C.2   301  INH301      0.1860
     23  O2        52.9260    8.3660    0.0350 O.2   301  INH301     -0.6460
     24  O1        53.0260    6.5300    1.1510 O.3   301  INH301     -0.7720
     25  H         53.9560    6.4820    1.0510 H     301  INH301      0.1670
     26  O3        50.9260    6.3000    3.3400 O.3   301  INH301     -0.3360
     27  C12       51.2920    6.8190    4.6240 C.3   301  INH301      0.4180
     28  C13       52.8050    7.0240    4.6860 C.2   301  INH301      0.1660
     29  O5        53.2450    7.9150    5.4170 O.2   301  INH301     -0.6480
     30  O4        53.5450    6.2940    4.0020 O.3   301  INH301     -0.7750
     31  H         54.2340    6.6710    3.4930 H     301  INH301      0.1670
@<TRIPOS>BOND
     1    23    22    2
     2     9     8   ar
     3     9    10   ar
     4     1     2   ar
     5     1     5   ar
     6     8     7   ar
     7    22    24    1
     8    22     2    1
     9    10    11   ar
    10    25    24    1
    11     2     3   ar
    12     7     5    1
    13     7    12   ar
    14     5     4   ar
    15    11    12   ar
    16    11    13    1
    17    14    13    1
    18    13    15    1
    19     3     4   ar
    20     3    26    1
    21     4     6    1
    22    21    20   ar
    23    21    16   ar
    24    20    19   ar
    25    15    16    1
    26    26    27    1
    27    16    17   ar
    28    31    30    1
    29    19    18   ar
    30    30    28    1
    31    17    18   ar
    32    27    28    1
    33    28    29    2
