@<TRIPOS>MOLECULE
/tmp/ewbell/vina_2qbr_2qbr_lig/vina/vina1.pdbqt
 31 33 0 0 0
SMALL
GASTEIGER

@<TRIPOS>ATOM
      1  S1        44.3760   15.6420    1.5910 S.2   301  INH301     -0.0790
      2  C1        45.1880   16.1620    3.0000 C.ar  301  INH301      0.1130
      3  C2        46.1940   15.2210    3.3420 C.ar  301  INH301      0.1100
      4  C3        46.2350   14.1390    2.4200 C.ar  301  INH301      0.0450
      5  C4        45.2740   14.2310    1.3810 C.ar  301  INH301      0.0350
      6 Br1        47.4760   12.7200    2.6060 Br    301  INH301     -0.1620
      7  C6        45.0000   13.3010    0.2390 C.ar  301  INH301     -0.0150
      8  C11       44.7520   13.8440   -1.0660 C.ar  301  INH301      0.0130
      9  C10       44.4820   12.9890   -2.1840 C.ar  301  INH301      0.0030
     10  C9        44.4580   11.5680   -1.9870 C.ar  301  INH301      0.0290
     11  C8        44.7070   11.0120   -0.6760 C.ar  301  INH301      0.0290
     12  C7        44.9760   11.8770    0.4240 C.ar  301  INH301      0.0420
     13  N1        44.6960    9.6520   -0.4180 N.pl3 301  INH301     -0.3860
     14  H7        43.8670    9.2660    0.0530 H     301  INH301      0.1600
     15  C14       45.7770    8.7130   -0.7660 C.3   301  INH301      0.1580
     16  C15       47.0540    8.9590    0.0080 C.ar  301  INH301     -0.0410
     17  C20       47.1950    8.4110    1.3270 C.ar  301  INH301      0.0090
     18  C19       48.4070    8.6500    2.0590 C.ar  301  INH301      0.0010
     19  C18       49.4550    9.4350    1.4580 C.ar  301  INH301      0.0000
     20  C17       49.3150    9.9860    0.1400 C.ar  301  INH301      0.0010
     21  C16       48.1060    9.7430   -0.5870 C.ar  301  INH301      0.0090
     22  C5        44.8170   17.3660    3.6390 C.2   301  INH301      0.1860
     23  O2        44.5680   18.3390    2.9210 O.2   301  INH301     -0.6460
     24  O1        44.7510   17.4380    4.8660 O.3   301  INH301     -0.7720
     25  H         44.2890   16.7820    5.3490 H     301  INH301      0.1670
     26  O3        47.0910   15.2830    4.4640 O.3   301  INH301     -0.3360
     27  C12       48.2560   16.0930    4.2670 C.3   301  INH301      0.4180
     28  C13       48.2020   17.3090    5.1910 C.2   301  INH301      0.1660
     29  O5        49.1160   18.1350    5.1260 O.2   301  INH301     -0.6480
     30  O4        47.2460   17.4300    5.9790 O.3   301  INH301     -0.7750
     31  H         46.9610   16.6960    6.4870 H     301  INH301      0.1670
@<TRIPOS>BOND
     1     9    10   ar
     2     9     8   ar
     3    10    11   ar
     4     8     7   ar
     5    15    13    1
     6    15    16    1
     7    11    13    1
     8    11    12   ar
     9    21    16   ar
    10    21    20   ar
    11    13    14    1
    12    16    17   ar
    13    20    19   ar
    14     7    12   ar
    15     7     5    1
    16    17    18   ar
    17     5     1   ar
    18     5     4   ar
    19    19    18   ar
    20     1     2   ar
    21     4     6    1
    22     4     3   ar
    23    23    22    2
    24     2     3   ar
    25     2    22    1
    26     3    26    1
    27    22    24    1
    28    27    26    1
    29    27    28    1
    30    24    25    1
    31    29    28    2
    32    28    30    1
    33    30    31    1
