@<TRIPOS>MOLECULE
/tmp/ewbell/vina_2qbr_2qbr_lig/vina/vina5.pdbqt
 31 33 0 0 0
SMALL
GASTEIGER

@<TRIPOS>ATOM
      1  S1        44.4320   15.3870    1.6320 S.2   301  INH301     -0.0790
      2  C1        45.2590   16.0450    2.9730 C.ar  301  INH301      0.1130
      3  C2        46.2680   15.1410    3.3980 C.ar  301  INH301      0.1100
      4  C3        46.2970   13.9710    2.5900 C.ar  301  INH301      0.0450
      5  C4        45.3260   13.9600    1.5570 C.ar  301  INH301      0.0350
      6 Br1        47.5380   12.5740    2.9060 Br    301  INH301     -0.1620
      7  C6        45.0390   12.9200    0.5170 C.ar  301  INH301     -0.0150
      8  C11       45.0400   11.5340    0.8890 C.ar  301  INH301      0.0130
      9  C10       44.7740   10.5090   -0.0750 C.ar  301  INH301      0.0030
     10  C9        44.5060   10.8810   -1.4350 C.ar  301  INH301      0.0290
     11  C8        44.5020   12.2750   -1.8200 C.ar  301  INH301      0.0290
     12  C7        44.7660   13.2820   -0.8460 C.ar  301  INH301      0.0420
     13  N1        44.2530   12.7010   -3.1130 N.pl3 301  INH301     -0.3860
     14  H7        43.8450   12.0180   -3.7650 H     301  INH301      0.1600
     15  C14       44.5240   14.0530   -3.6280 C.3   301  INH301      0.1580
     16  C15       43.2740   14.8900   -3.7990 C.ar  301  INH301     -0.0410
     17  C20       42.8600   15.2760   -5.1180 C.ar  301  INH301      0.0090
     18  C19       41.6760   16.0730   -5.2750 C.ar  301  INH301      0.0010
     19  C18       40.9280   16.4680   -4.1090 C.ar  301  INH301      0.0000
     20  C17       41.3410   16.0830   -2.7890 C.ar  301  INH301      0.0010
     21  C16       42.5210   15.2880   -2.6370 C.ar  301  INH301      0.0090
     22  C5        44.8970   17.3090    3.4910 C.2   301  INH301      0.1860
     23  O2        44.5890   18.1890    2.6820 O.2   301  INH301     -0.6460
     24  O1        44.8940   17.5200    4.7030 O.3   301  INH301     -0.7720
     25  H         45.4720   18.1600    5.0670 H     301  INH301      0.1670
     26  O3        47.1770   15.3130    4.4990 O.3   301  INH301     -0.3360
     27  C12       48.2970   16.1660    4.2350 C.3   301  INH301      0.4180
     28  C13       48.2750   17.3580    5.1910 C.2   301  INH301      0.1660
     29  O5        47.3070   17.4860    5.9460 O.2   301  INH301     -0.6480
     30  O4        49.2250   18.1620    5.1800 O.3   301  INH301     -0.7750
     31  H         49.8190   18.1750    4.4550 H     301  INH301      0.1670
@<TRIPOS>BOND
     1    18    17   ar
     2    18    19   ar
     3    17    16   ar
     4    19    20   ar
     5    16    15    1
     6    16    21   ar
     7    14    13    1
     8    15    13    1
     9    13    11    1
    10    20    21   ar
    11    11    10   ar
    12    11    12   ar
    13    10     9   ar
    14    12     7   ar
    15     9     8   ar
    16     7     8   ar
    17     7     5    1
    18     5     1   ar
    19     5     4   ar
    20     1     2   ar
    21     4     6    1
    22     4     3   ar
    23    23    22    2
    24     2     3   ar
    25     2    22    1
    26     3    26    1
    27    22    24    1
    28    27    26    1
    29    27    28    1
    30    31    30    1
    31    24    25    1
    32    30    28    1
    33    28    29    2
