@<TRIPOS>MOLECULE
/tmp/ewbell/vina_1gz9_1gz9_lig/vina/vina2.pdbqt
 43 45 0 0 0
SMALL
GASTEIGER

@<TRIPOS>ATOM
      1  C7        83.0920   42.1870   30.7790 C.3   487  INH487      0.2920
      2  C8        82.8620   41.0950   31.7560 C.3   487  INH487      0.2110
      3  C9        81.4610   40.4500   31.2990 C.3   487  INH487      0.1830
      4  C10       80.3660   41.5280   31.3520 C.3   487  INH487      0.1800
      5  C11       80.8090   42.6570   30.3760 C.3   487  INH487      0.1790
      6  O9        82.0750   43.1830   30.8000 O.3   487  INH487     -0.3480
      7  O6        84.3540   42.8170   31.2010 O.3   487  INH487     -0.3480
      8  C16       85.2940   43.3070   30.1440 C.3   487  INH487      0.1870
      9  C15       85.5450   42.2320   29.0790 C.3   487  INH487      0.1830
     10  C14       86.3550   42.8200   27.8910 C.3   487  INH487      0.2040
     11  C13       85.5630   44.0190   27.3380 C.3   487  INH487      0.2880
     12  O14       85.4090   45.0270   28.4070 O.3   487  INH487     -0.3490
     13  C17       84.6150   44.5510   29.5410 C.3   487  INH487      0.1800
     14  O13       86.2570   41.1370   29.6070 O.3   487  INH487     -0.3900
     15  H31       86.2540   40.4240   28.9770 H     487  INH487      0.2100
     16  O12       86.5200   41.8000   26.9190 O.3   487  INH487     -0.3880
     17  H30       85.7120   41.6950   26.4300 H     487  INH487      0.2100
     18  O11       86.2860   44.5730   26.2850 O.3   487  INH487     -0.3690
     19  H29       87.0080   43.9980   26.0600 H     487  INH487      0.2120
     20  C18       84.5550   45.7190   30.5240 C.3   487  INH487      0.1980
     21  O15       83.2220   45.8640   31.0400 O.3   487  INH487     -0.3980
     22  H32       83.0180   46.7870   31.1370 H     487  INH487      0.2090
     23  O1        83.9490   40.1800   31.5540 O.3   487  INH487     -0.3460
     24  C1        84.2390   39.0770   32.3940 C.3   487  INH487      0.2920
     25  O5        84.8070   39.6730   33.6240 O.3   487  INH487     -0.3510
     26  C5        86.1600   40.3650   33.4140 C.3   487  INH487      0.1520
     27  C4        87.2070   39.3770   32.8330 C.3   487  INH487      0.1780
     28  C6        86.5990   40.9640   34.8080 C.3   487  INH487      0.0420
     29  C3        86.7170   38.8070   31.4550 C.3   487  INH487      0.1830
     30  C2        85.2590   38.2420   31.5790 C.3   487  INH487      0.2040
     31  O4        87.4060   38.3090   33.7470 O.3   487  INH487     -0.3900
     32  H11       88.0790   38.5500   34.3730 H     487  INH487      0.2100
     33  O3        87.5630   37.7450   31.0390 O.3   487  INH487     -0.3900
     34  H10       87.0720   36.9310   31.0380 H     487  INH487      0.2100
     35  O2        84.6490   37.6470   30.4080 O.3   487  INH487     -0.3880
     36  H9        83.9230   38.1880   30.1190 H     487  INH487      0.2100
     37  C12       79.8540   43.8020   30.3450 C.3   487  INH487      0.1980
     38  O10       80.3740   44.7670   31.2700 O.3   487  INH487     -0.3980
     39  H21       79.7820   44.8490   32.0070 H     487  INH487      0.2090
     40  O7        81.1410   39.3630   32.2180 O.3   487  INH487     -0.3900
     41  H19       80.3490   38.9270   31.9300 H     487  INH487      0.2100
     42  O8        80.2240   42.1000   32.6510 O.3   487  INH487     -0.3900
     43  H20       81.0630   42.0830   33.0980 H     487  INH487      0.2100
@<TRIPOS>BOND
     1    19    18    1
     2    18    11    1
     3    17    16    1
     4    16    10    1
     5    11    10    1
     6    11    12    1
     7    10     9    1
     8    12    13    1
     9    15    14    1
    10     9    14    1
    11     9     8    1
    12    13     8    1
    13    13    20    1
    14    36    35    1
    15     8     7    1
    16    37     5    1
    17    37    38    1
    18     5     6    1
    19     5     4    1
    20    35    30    1
    21    20    21    1
    22     1     6    1
    23     1     7    1
    24     1     2    1
    25    34    33    1
    26    33    29    1
    27    21    22    1
    28    38    39    1
    29     3     4    1
    30     3     2    1
    31     3    40    1
    32     4    42    1
    33    29    30    1
    34    29    27    1
    35    23     2    1
    36    23    24    1
    37    30    24    1
    38    41    40    1
    39    24    25    1
    40    42    43    1
    41    27    26    1
    42    27    31    1
    43    26    25    1
    44    26    28    1
    45    31    32    1
