@<TRIPOS>MOLECULE
/tmp/ewbell/vina_1gz9_1gz9_lig/vina/vina3.pdbqt
 43 45 0 0 0
SMALL
GASTEIGER

@<TRIPOS>ATOM
      1  C7        82.2220   42.6590   29.5650 C.3   487  INH487      0.2920
      2  C8        82.1590   42.4960   31.0380 C.3   487  INH487      0.2110
      3  C9        80.5930   42.2990   31.3430 C.3   487  INH487      0.1830
      4  C10       79.8220   43.5360   30.8540 C.3   487  INH487      0.1800
      5  C11       80.0860   43.6440   29.3230 C.3   487  INH487      0.1790
      6  O9        81.4950   43.7880   29.0920 O.3   487  INH487     -0.3480
      7  O6        83.6470   42.8780   29.2650 O.3   487  INH487     -0.3480
      8  C16       84.2050   42.3050   28.0000 C.3   487  INH487      0.1870
      9  C15       83.5900   40.9340   27.6890 C.3   487  INH487      0.1830
     10  C14       84.0250   40.4490   26.2780 C.3   487  INH487      0.2040
     11  C13       83.5990   41.5270   25.2650 C.3   487  INH487      0.2880
     12  O14       84.2720   42.7970   25.6040 O.3   487  INH487     -0.3490
     13  C17       83.8710   43.3350   26.9050 C.3   487  INH487      0.1800
     14  O13       83.9790   39.9660   28.6350 O.3   487  INH487     -0.3900
     15  H31       84.5670   40.3600   29.2690 H     487  INH487      0.2100
     16  O12       83.3940   39.2030   26.0250 O.3   487  INH487     -0.3880
     17  H30       83.7560   38.8200   25.2340 H     487  INH487      0.2100
     18  O11       84.0020   41.1180   23.9960 O.3   487  INH487     -0.3690
     19  H29       83.5280   40.3300   23.7520 H     487  INH487      0.2120
     20  C18       84.6500   44.6390   27.0720 C.3   487  INH487      0.1980
     21  O15       83.9870   45.4940   28.0180 O.3   487  INH487     -0.3980
     22  H32       83.7460   46.3090   27.5930 H     487  INH487      0.2090
     23  O1        82.9000   41.2980   31.3110 O.3   487  INH487     -0.3460
     24  C1        83.5500   41.0170   32.5390 C.3   487  INH487      0.2920
     25  O5        84.8090   41.7940   32.4920 O.3   487  INH487     -0.3510
     26  C5        85.7940   41.3190   31.4160 C.3   487  INH487      0.1520
     27  C4        86.1610   39.8240   31.6170 C.3   487  INH487      0.1780
     28  C6        87.0540   42.2700   31.4870 C.3   487  INH487      0.0420
     29  C3        84.8740   38.9300   31.5460 C.3   487  INH487      0.1830
     30  C2        83.7640   39.4830   32.5070 C.3   487  INH487      0.2040
     31  O4        86.7880   39.6590   32.8790 O.3   487  INH487     -0.3900
     32  H11       87.6510   39.2820   32.7570 H     487  INH487      0.2100
     33  O3        85.1810   37.6030   31.9490 O.3   487  INH487     -0.3900
     34  H10       84.9130   37.4770   32.8520 H     487  INH487      0.2100
     35  O2        82.5100   38.7650   32.5950 O.3   487  INH487     -0.3880
     36  H9        82.5250   38.1910   33.3530 H     487  INH487      0.2100
     37  C12       79.4240   44.8300   28.7050 C.3   487  INH487      0.1980
     38  O10       78.0370   44.4820   28.5880 O.3   487  INH487     -0.3980
     39  H21       77.5030   45.2230   28.8480 H     487  INH487      0.2090
     40  O7        80.4290   42.1420   32.7850 O.3   487  INH487     -0.3900
     41  H19       80.5470   42.9820   33.2110 H     487  INH487      0.2100
     42  O8        80.2770   44.7420   31.4650 O.3   487  INH487     -0.3900
     43  H20       81.0010   45.0980   30.9630 H     487  INH487      0.2100
@<TRIPOS>BOND
     1    19    18    1
     2    18    11    1
     3    17    16    1
     4    11    12    1
     5    11    10    1
     6    12    13    1
     7    16    10    1
     8    10     9    1
     9    13    20    1
    10    13     8    1
    11    20    21    1
    12    22    21    1
    13     9     8    1
    14     9    14    1
    15     8     7    1
    16    38    37    1
    17    38    39    1
    18    14    15    1
    19    37     5    1
    20     6     5    1
    21     6     1    1
    22     7     1    1
    23     5     4    1
    24     1     2    1
    25     4     3    1
    26     4    42    1
    27    43    42    1
    28     2    23    1
    29     2     3    1
    30    23    24    1
    31     3    40    1
    32    26    28    1
    33    26    27    1
    34    26    25    1
    35    29    27    1
    36    29    33    1
    37    29    30    1
    38    27    31    1
    39    33    34    1
    40    25    24    1
    41    30    24    1
    42    30    35    1
    43    35    36    1
    44    32    31    1
    45    40    41    1
