@<TRIPOS>MOLECULE
/tmp/ewbell/vina_1gz9_1gz9_lig/vina/vina5.pdbqt
 43 45 0 0 0
SMALL
GASTEIGER

@<TRIPOS>ATOM
      1  C7        84.2610   43.4900   28.3940 C.3   487  INH487      0.2920
      2  C8        84.9960   42.2000   28.3990 C.3   487  INH487      0.2110
      3  C9        86.5440   42.6330   28.4200 C.3   487  INH487      0.1830
      4  C10       86.8500   43.4810   27.1750 C.3   487  INH487      0.1800
      5  C11       85.9200   44.7260   27.2480 C.3   487  INH487      0.1790
      6  O9        84.5500   44.2970   27.2580 O.3   487  INH487     -0.3480
      7  O6        82.8380   43.1180   28.3370 O.3   487  INH487     -0.3480
      8  C16       81.8290   44.1970   28.0930 C.3   487  INH487      0.1870
      9  C15       81.1960   44.0630   26.7030 C.3   487  INH487      0.1830
     10  C14       80.0130   45.0600   26.5450 C.3   487  INH487      0.2040
     11  C13       79.0100   44.7730   27.6760 C.3   487  INH487      0.2880
     12  O14       79.6830   44.9720   28.9770 O.3   487  INH487     -0.3490
     13  C17       80.7810   44.0330   29.2100 C.3   487  INH487      0.1800
     14  O13       82.1320   44.3140   25.6810 O.3   487  INH487     -0.3900
     15  H31       82.9850   43.9880   25.9450 H     487  INH487      0.2100
     16  O12       79.4380   44.8630   25.2630 O.3   487  INH487     -0.3880
     17  H30       79.1190   45.6940   24.9280 H     487  INH487      0.2100
     18  O11       77.9540   45.6730   27.5630 O.3   487  INH487     -0.3690
     19  H29       77.7560   45.8150   26.6440 H     487  INH487      0.2120
     20  C18       81.3370   44.3800   30.5900 C.3   487  INH487      0.1980
     21  O15       80.2720   44.7900   31.4640 O.3   487  INH487     -0.3980
     22  H32       80.2590   44.2290   32.2300 H     487  INH487      0.2090
     23  O1        84.6140   41.5610   29.6250 O.3   487  INH487     -0.3460
     24  C1        84.2500   40.1960   29.7410 C.3   487  INH487      0.2920
     25  O5        82.7900   40.2100   29.9810 O.3   487  INH487     -0.3510
     26  C5        82.3850   40.8320   31.3230 C.3   487  INH487      0.1520
     27  C4        83.0580   40.0890   32.5080 C.3   487  INH487      0.1780
     28  C6        80.8070   40.7920   31.3980 C.3   487  INH487      0.0420
     29  C3        84.6200   40.1540   32.3780 C.3   487  INH487      0.1830
     30  C2        85.0750   39.6890   30.9500 C.3   487  INH487      0.2040
     31  O4        82.6350   38.7350   32.5160 O.3   487  INH487     -0.3900
     32  H11       81.7680   38.6710   32.1340 H     487  INH487      0.2100
     33  O3        85.2240   39.2900   33.3320 O.3   487  INH487     -0.3900
     34  H10       85.0600   39.6220   34.2070 H     487  INH487      0.2100
     35  O2        86.4920   39.6550   30.6560 O.3   487  INH487     -0.3880
     36  H9        86.9660   39.3330   31.4150 H     487  INH487      0.2100
     37  C12       86.0780   45.6370   26.0770 C.3   487  INH487      0.1980
     38  O10       85.0310   45.2800   25.1640 O.3   487  INH487     -0.3980
     39  H21       84.5630   44.5250   25.4990 H     487  INH487      0.2090
     40  O7        87.3540   41.4190   28.4140 O.3   487  INH487     -0.3900
     41  H19       87.7070   41.2780   27.5440 H     487  INH487      0.2100
     42  O8        86.5670   42.7900   25.9590 O.3   487  INH487     -0.3900
     43  H20       86.2300   43.4040   25.3170 H     487  INH487      0.2100
@<TRIPOS>BOND
     1    17    16    1
     2    38    39    1
     3    38    37    1
     4    16    10    1
     5    43    42    1
     6    14    15    1
     7    14     9    1
     8    42     4    1
     9    37     5    1
    10    10     9    1
    11    10    11    1
    12    19    18    1
    13     9     8    1
    14     4     5    1
    15     4     3    1
    16     5     6    1
    17     6     1    1
    18    41    40    1
    19    18    11    1
    20    11    12    1
    21     8     7    1
    22     8    13    1
    23     7     1    1
    24     1     2    1
    25     2     3    1
    26     2    23    1
    27    40     3    1
    28    12    13    1
    29    13    20    1
    30    23    24    1
    31    24    25    1
    32    24    30    1
    33    25    26    1
    34    20    21    1
    35    35    30    1
    36    35    36    1
    37    30    29    1
    38    26    28    1
    39    26    27    1
    40    21    22    1
    41    32    31    1
    42    29    27    1
    43    29    33    1
    44    27    31    1
    45    33    34    1
