@<TRIPOS>MOLECULE
/tmp/ewbell/vina_1gz9_1gz9_lig/vina/vina4.pdbqt
 43 45 0 0 0
SMALL
GASTEIGER

@<TRIPOS>ATOM
      1  C7        82.4480   43.2000   29.5890 C.3   487  INH487      0.2920
      2  C8        82.2920   42.8530   31.0240 C.3   487  INH487      0.2110
      3  C9        80.7650   42.3670   31.1450 C.3   487  INH487      0.1830
      4  C10       79.8330   43.5110   30.7110 C.3   487  INH487      0.1800
      5  C11       80.2000   43.8440   29.2360 C.3   487  INH487      0.1790
      6  O9        81.5760   44.2430   29.1660 O.3   487  INH487     -0.3480
      7  O6        83.8320   43.6840   29.4610 O.3   487  INH487     -0.3480
      8  C16       84.0550   45.1240   29.1210 C.3   487  INH487      0.1870
      9  C15       84.7930   45.8560   30.2490 C.3   487  INH487      0.1830
     10  C14       85.1940   47.2880   29.7980 C.3   487  INH487      0.2040
     11  C13       86.0520   47.1520   28.5280 C.3   487  INH487      0.2880
     12  O14       85.2530   46.4850   27.4790 O.3   487  INH487     -0.3490
     13  C17       84.8800   45.1120   27.8210 C.3   487  INH487      0.1800
     14  O13       83.9990   45.9570   31.4080 O.3   487  INH487     -0.3900
     15  H31       84.4730   45.5970   32.1490 H     487  INH487      0.2100
     16  O12       85.9100   47.9010   30.8590 O.3   487  INH487     -0.3880
     17  H30       85.4040   47.8390   31.6610 H     487  INH487      0.2100
     18  O11       86.4020   48.4290   28.0970 O.3   487  INH487     -0.3690
     19  H29       86.5610   48.9850   28.8520 H     487  INH487      0.2120
     20  C18       84.0820   44.5900   26.6260 C.3   487  INH487      0.1980
     21  O15       82.7240   45.0550   26.6970 O.3   487  INH487     -0.3980
     22  H32       82.1520   44.3290   26.9160 H     487  INH487      0.2090
     23  O1        83.2060   41.7690   31.2440 O.3   487  INH487     -0.3460
     24  C1        83.6230   41.3150   32.5200 C.3   487  INH487      0.2920
     25  O5        85.0150   41.7980   32.6600 O.3   487  INH487     -0.3510
     26  C5        86.0010   41.1510   31.6790 C.3   487  INH487      0.1520
     27  C4        86.0110   39.6070   31.8380 C.3   487  INH487      0.1780
     28  C6        87.4170   41.7990   31.9460 C.3   487  INH487      0.0420
     29  C3        84.5820   39.0190   31.5700 C.3   487  INH487      0.1830
     30  C2        83.5060   39.7730   32.4280 C.3   487  INH487      0.2040
     31  O4        86.4280   39.2710   33.1520 O.3   487  INH487     -0.3900
     32  H11       87.3640   39.4090   33.2330 H     487  INH487      0.2100
     33  O3        84.5440   37.6460   31.9320 O.3   487  INH487     -0.3900
     34  H10       85.2870   37.4450   32.4910 H     487  INH487      0.2100
     35  O2        82.1260   39.3460   32.3320 O.3   487  INH487     -0.3880
     36  H9        81.5600   40.1080   32.2780 H     487  INH487      0.2100
     37  C12       79.3950   44.9710   28.6800 C.3   487  INH487      0.1980
     38  O10       79.9140   45.2060   27.3650 O.3   487  INH487     -0.3980
     39  H21       80.7550   45.6420   27.4300 H     487  INH487      0.2090
     40  O7        80.5110   42.0120   32.5380 O.3   487  INH487     -0.3900
     41  H19       79.6950   41.5320   32.5990 H     487  INH487      0.2100
     42  O8        80.0190   44.6920   31.4890 O.3   487  INH487     -0.3900
     43  H20       80.2730   44.4530   32.3730 H     487  INH487      0.2100
@<TRIPOS>BOND
     1    20    21    1
     2    20    13    1
     3    21    22    1
     4    38    39    1
     5    38    37    1
     6    12    13    1
     7    12    11    1
     8    13     8    1
     9    18    11    1
    10    18    19    1
    11    11    10    1
    12    37     5    1
    13     8     7    1
    14     8     9    1
    15     6     5    1
    16     6     1    1
    17     5     4    1
    18     7     1    1
    19     1     2    1
    20    10     9    1
    21    10    16    1
    22     9    14    1
    23     4     3    1
    24     4    42    1
    25    16    17    1
    26     2     3    1
    27     2    23    1
    28     3    40    1
    29    23    24    1
    30    14    15    1
    31    42    43    1
    32    29    27    1
    33    29    33    1
    34    29    30    1
    35    26    27    1
    36    26    28    1
    37    26    25    1
    38    27    31    1
    39    33    34    1
    40    36    35    1
    41    35    30    1
    42    30    24    1
    43    24    25    1
    44    40    41    1
    45    31    32    1
