@<TRIPOS>MOLECULE
/tmp/ewbell/vina_1gz9_1gz9_lig/vina/vina1.pdbqt
 43 45 0 0 0
SMALL
GASTEIGER

@<TRIPOS>ATOM
      1  C7        83.0640   42.2610   30.9290 C.3   487  INH487      0.2920
      2  C8        82.8060   41.1130   31.8330 C.3   487  INH487      0.2110
      3  C9        81.4550   40.4580   31.2560 C.3   487  INH487      0.1830
      4  C10       80.3290   41.5040   31.2950 C.3   487  INH487      0.1800
      5  C11       80.7990   42.6920   30.4060 C.3   487  INH487      0.1790
      6  O9        82.0200   43.2280   30.9360 O.3   487  INH487     -0.3480
      7  O6        84.2790   42.9000   31.4600 O.3   487  INH487     -0.3480
      8  C16       84.9900   43.9030   30.6050 C.3   487  INH487      0.1870
      9  C15       84.6100   45.3360   30.9960 C.3   487  INH487      0.1830
     10  C14       85.5030   46.3610   30.2420 C.3   487  INH487      0.2040
     11  C13       86.9690   46.0310   30.5740 C.3   487  INH487      0.2880
     12  O14       87.2660   44.6570   30.1220 O.3   487  INH487     -0.3490
     13  C17       86.4900   43.6350   30.8260 C.3   487  INH487      0.1800
     14  O13       83.2610   45.6150   30.6990 O.3   487  INH487     -0.3900
     15  H31       82.8440   46.0060   31.4580 H     487  INH487      0.2100
     16  O12       85.1410   47.6640   30.6730 O.3   487  INH487     -0.3880
     17  H30       84.9440   48.2040   29.9160 H     487  INH487      0.2100
     18  O11       87.7850   46.9270   29.8880 O.3   487  INH487     -0.3690
     19  H29       87.3020   47.3030   29.1610 H     487  INH487      0.2120
     20  C18       86.9380   42.2970   30.2410 C.3   487  INH487      0.1980
     21  O15       85.8520   41.6780   29.5320 O.3   487  INH487     -0.3980
     22  H32       85.0270   42.0090   29.8650 H     487  INH487      0.2090
     23  O1        83.9290   40.2390   31.6540 O.3   487  INH487     -0.3460
     24  C1        84.2350   39.1390   32.4930 C.3   487  INH487      0.2920
     25  O5        84.8370   39.7390   33.7050 O.3   487  INH487     -0.3510
     26  C5        86.1870   40.4210   33.4560 C.3   487  INH487      0.1520
     27  C4        87.2140   39.4240   32.8550 C.3   487  INH487      0.1780
     28  C6        86.6650   41.0260   34.8360 C.3   487  INH487      0.0420
     29  C3        86.6870   38.8490   31.4940 C.3   487  INH487      0.1830
     30  C2        85.2280   38.2930   31.6580 C.3   487  INH487      0.2040
     31  O4        87.4300   38.3610   33.7710 O.3   487  INH487     -0.3900
     32  H11       88.3570   38.1600   33.8110 H     487  INH487      0.2100
     33  O3        87.5160   37.7790   31.0630 O.3   487  INH487     -0.3900
     34  H10       88.3160   38.1300   30.6880 H     487  INH487      0.2100
     35  O2        84.5870   37.6950   30.5060 O.3   487  INH487     -0.3880
     36  H9        83.6560   37.6000   30.6750 H     487  INH487      0.2100
     37  C12       79.8140   43.8130   30.3730 C.3   487  INH487      0.1980
     38  O10       80.3090   44.7910   31.2970 O.3   487  INH487     -0.3980
     39  H21       80.1290   45.6620   30.9630 H     487  INH487      0.2090
     40  O7        81.1110   39.3160   32.0980 O.3   487  INH487     -0.3900
     41  H19       80.8120   38.5990   31.5520 H     487  INH487      0.2100
     42  O8        80.0910   42.0030   32.6100 O.3   487  INH487     -0.3900
     43  H20       79.6330   41.3460   33.1210 H     487  INH487      0.2100
@<TRIPOS>BOND
     1    19    18    1
     2    21    22    1
     3    21    20    1
     4    18    11    1
     5    17    16    1
     6    12    11    1
     7    12    13    1
     8    20    13    1
     9    10    11    1
    10    10    16    1
    11    10     9    1
    12    37     5    1
    13    37    38    1
    14     5     6    1
    15     5     4    1
    16    35    36    1
    17    35    30    1
    18     8    13    1
    19     8     9    1
    20     8     7    1
    21    34    33    1
    22    14     9    1
    23    14    15    1
    24     1     6    1
    25     1     7    1
    26     1     2    1
    27    39    38    1
    28    33    29    1
    29     3     4    1
    30     3     2    1
    31     3    40    1
    32     4    42    1
    33    29    30    1
    34    29    27    1
    35    41    40    1
    36    23     2    1
    37    23    24    1
    38    30    24    1
    39    24    25    1
    40    42    43    1
    41    27    26    1
    42    27    31    1
    43    26    25    1
    44    26    28    1
    45    31    32    1
