@<TRIPOS>MOLECULE
./ligand/2jgb_lig.pdb
 48 50 0 0 0
SMALL
GASTEIGER

@<TRIPOS>ATOM
      1  C1       -14.6380   10.2730   14.5150 C.3   210  INH210      0.2031
      2  C2       -12.6520    9.9970   13.7670 C.3   210  INH210      0.2428
      3  C3       -12.7030   11.2820   14.4630 C.2   210  INH210      0.3236
      4  C4       -11.3700    9.6040   13.1670 C.2   210  INH210      0.2530
      5  C5       -10.4470   11.6410   13.9580 C.3   210  INH210      0.3529
      6  C6       -16.5010   13.3140   16.5410 C.3   210  INH210      0.1156
      7  C7       -15.8780   12.7920   15.2770 C.3   210  INH210      0.1476
      8  C8       -15.6310   12.7120   17.6350 C.3   210  INH210      0.1152
      9  C9       -14.4260   12.5530   15.6520 C.3   210  INH210      0.2240
     10  C10      -14.2830    8.1050   13.2650 C.3   210  INH210     -0.0074
     11  C11      -16.2820   11.5130   18.3220 C.3   210  INH210      0.0837
     12  N1       -11.5960   12.0480   14.5350 N.2   210  INH210     -0.0334
     13  N2       -13.8490    9.4120   13.8260 N.3   210  INH210     -0.2380
     14  N3       -13.9450   11.3860   14.8900 N.pl3 210  INH210     -0.1720
     15  N4       -10.3340   10.4620   13.2980 N.am  210  INH210     -0.2501
     16  N5        -9.3820   12.4660   14.0850 N.3   210  INH210     -0.2637
     17  O1       -19.7590   13.5900   14.8960 O.2   210  INH210     -0.2221
     18  O2       -22.0000   12.8770   13.9440 O.3   210  INH210     -0.1143
     19  O3       -18.2620    9.4580   18.9450 O.2   210  INH210     -0.5170
     20  O4       -20.6840   12.0240   18.4670 O.2   210  INH210     -0.5168
     21  O5       -11.2770    8.5290   12.5540 O.2   210  INH210     -0.2729
     22  O6       -20.0510   11.2510   13.8960 O.3   210  INH210     -0.1143
     23  O7       -18.1520    8.6920   16.4610 O.3   210  INH210     -0.4371
     24  O8       -21.2450    9.7610   17.3060 O.3   210  INH210     -0.4368
     25  O9       -14.3940   12.2800   17.0460 O.3   210  INH210     -0.3293
     26  O10      -16.3730   14.7430   16.4970 O.3   210  INH210     -0.3863
     27  O11      -15.9640   13.7170   14.1990 O.3   210  INH210     -0.3825
     28  O12      -16.6180   10.4950   17.3720 O.3   210  INH210     -0.3246
     29  O13      -21.2530   11.9220   16.0080 O.3   210  INH210     -0.2258
     30  O14      -19.0210   10.9690   16.9150 O.3   210  INH210     -0.2700
     31  P1       -20.6980   12.4530   14.5740 P.3   210  INH210      0.5373
     32  P2       -18.0620    9.7910   17.4830 P.3   210  INH210      0.2182
     33  P3       -20.5910   11.1150   17.2510 P.3   210  INH210      0.2277
     34  H1       -15.6800   10.1000   14.7380 H     210  INH210      0.1003
     35  H2       -17.5620   13.0650   16.6920 H     210  INH210      0.0648
     36  H3       -16.3950   11.8890   14.9220 H     210  INH210      0.0687
     37  H4       -15.4770   13.4880   18.3990 H     210  INH210      0.0647
     38  H5       -13.7890   13.4200   15.4240 H     210  INH210      0.1118
     39  H6       -14.3900    8.1910   12.1740 H     210  INH210      0.0392
     40  H7       -13.5310    7.3380   13.5000 H     210  INH210      0.0392
     41  H8       -15.2490    7.8190   13.7070 H     210  INH210      0.0392
     42  H9       -17.2000   11.8460   18.8280 H     210  INH210      0.0591
     43  H10      -15.5680   11.0940   19.0470 H     210  INH210      0.0591
     44  H11       -9.4520   10.2190   12.8940 H     210  INH210      0.1547
     45  H12       -9.6410   13.2850   14.5970 H     210  INH210      0.1243
     46  H13       -8.4690   12.2830   13.7200 H     210  INH210      0.1243
     47  H14      -16.3450   15.0860   17.3820 H     210  INH210      0.2100
     48  H15      -15.9830   14.6030   14.5420 H     210  INH210      0.2102
@<TRIPOS>BOND
     1     1    14    1
     2     1    34    1
     3     1    13    1
     4     2    13    1
     5     2     4    1
     6     2     3    1
     7     3    14    1
     8     3    12    2
     9     4    15   am
    10     4    21    2
    11     5    12    1
    12     5    16    1
    13     5    15    1
    14     6    35    1
    15     6    26    1
    16     6     8    1
    17     6     7    1
    18     7    36    1
    19     7    27    1
    20     7     9    1
    21     8    25    1
    22     8    37    1
    23     8    11    1
    24     9    38    1
    25     9    25    1
    26     9    14    1
    27    10    13    1
    28    10    41    1
    29    10    40    1
    30    10    39    1
    31    11    43    1
    32    11    42    1
    33    11    28    1
    34    15    44    1
    35    16    46    1
    36    16    45    1
    37    17    31    2
    38    18    31    1
    39    19    32    2
    40    20    33    2
    41    22    31    1
    42    23    32    1
    43    24    33    1
    44    26    47    1
    45    27    48    1
    46    28    32    1
    47    29    33    1
    48    29    31    1
    49    30    32    1
    50    30    33    1
