@<TRIPOS>MOLECULE
/tmp/ewbell/vina_2jgb_2jgb_lig/vina/vina4.pdbqt
 43 45 0 0 0
SMALL
GASTEIGER

@<TRIPOS>ATOM
      1  C6       -16.8160   13.0720   16.6220 C.3   210  INH210      0.1820
      2  C7       -16.0240   12.7200   15.3950 C.3   210  INH210      0.1980
      3  C8       -15.9800   12.4960   17.7560 C.3   210  INH210      0.1800
      4  C9       -14.5930   12.6240   15.8930 C.3   210  INH210      0.2620
      5  O9       -14.6520   12.2550   17.2640 O.3   210  INH210     -0.3530
      6  C11      -16.5380   11.1820   18.3000 C.3   210  INH210      0.2150
      7  O12      -16.7430   10.2340   17.2460 O.3   210  INH210     -0.2940
      8  P2       -18.2320    9.6730   17.0000 P.3   210  INH210      0.4010
      9  O3       -18.5840   10.0140   15.5680 O.2   210  INH210     -0.6310
     10  O7       -19.1270   10.1520   18.1090 O.3   210  INH210     -0.3070
     11  H        -18.6180   10.2120   18.9330 H     210  INH210      0.2220
     12  O14      -18.0160    8.0930   17.2900 O.3   210  INH210     -0.1950
     13  P3       -17.2590    7.0730   16.2970 P.3   210  INH210      0.4100
     14  O4       -16.5830    6.0380   17.1840 O.2   210  INH210     -0.6310
     15  O8       -16.4240    7.8320   15.3020 O.3   210  INH210     -0.3070
     16  H        -15.4840    7.6800   15.4850 H     210  INH210      0.2220
     17  O13      -18.4170    6.2970   15.4670 O.3   210  INH210     -0.1950
     18  P1       -19.5340    6.7550   14.3760 P.3   210  INH210      0.3990
     19  O1       -20.7490    7.1520   15.1790 O.2   210  INH210     -0.6310
     20  O2       -19.6830    5.4640   13.6140 O.3   210  INH210     -0.3070
     21  H        -20.4470    5.5260   13.0200 H     210  INH210      0.2220
     22  O6       -18.9000    7.8780   13.5630 O.3   210  INH210     -0.3070
     23  H        -19.1450    8.7340   13.9480 H     210  INH210      0.2220
     24  O10      -16.8610   14.5050   16.6800 O.3   210  INH210     -0.3900
     25  H14      -16.3120   14.8670   15.9940 H     210  INH210      0.2100
     26  O11      -16.1260   13.7060   14.3730 O.3   210  INH210     -0.3880
     27  H15      -15.5530   13.4750   13.6510 H     210  INH210      0.2100
     28  N3       -13.9070   11.5800   15.1110 N.pl3 210  INH210     -0.2970
     29  C1       -14.4130   10.4080   14.6310 C.3   210  INH210      0.1900
     30  N2       -13.4700    9.7040   13.9590 N.pl3 210  INH210     -0.3400
     31  C2       -12.3640   10.4470   14.0160 C.2   210  INH210      0.1540
     32  C10      -13.6810    8.3860   13.3030 C.3   210  INH210      0.1570
     33  C4       -11.0040   10.2670   13.4910 C.2   210  INH210      0.3570
     34  C3       -12.6370   11.6700   14.7700 C.2   210  INH210      0.1420
     35  N4       -10.1070   11.2470   13.7400 N.am  210  INH210     -0.0150
     36  O5       -10.7230    9.2530   12.8330 O.2   210  INH210     -0.2590
     37  C5       -10.4250   12.3590   14.4480 C.3   210  INH210      0.7630
     38  H11       -9.1760   11.1500   13.3890 H     210  INH210      0.2740
     39  N1       -11.6540   12.5720   14.9600 N.pl3 210  INH210     -0.3290
     40  N5        -9.4950   13.3110   14.6930 N.3   210  INH210     -0.3870
     41  H1       -11.8410   13.4210   15.4940 H     210  INH210      0.1650
     42  H13       -8.5430   13.2740   14.3860 H     210  INH210      0.1530
     43  H12       -9.8970   14.0550   15.2250 H     210  INH210      0.1530
@<TRIPOS>BOND
     1    36    33    2
     2    21    20    1
     3    32    30    1
     4    38    35    1
     5    33    35   am
     6    33    31    1
     7    22    23    1
     8    22    18    1
     9    20    18    1
    10    27    26    1
    11    35    37    1
    12    30    31    1
    13    30    29    1
    14    31    34    2
    15    26     2    1
    16    18    19    2
    17    18    17    1
    18    42    40    1
    19    37    40    1
    20    37    39    1
    21    29    28    1
    22    40    43    1
    23    34    39    1
    24    34    28    1
    25    39    41    1
    26    28     4    1
    27    15    16    1
    28    15    13    1
    29     2     4    1
    30     2     1    1
    31    17    13    1
    32     9     8    2
    33     4     5    1
    34    25    24    1
    35    13    14    2
    36    13    12    1
    37     1    24    1
    38     1     3    1
    39     8     7    1
    40     8    12    1
    41     8    10    1
    42     7     6    1
    43     5     3    1
    44     3     6    1
    45    10    11    1
