@<TRIPOS>MOLECULE
/tmp/ewbell/vina_2jgb_2jgb_lig/vina/vina1.pdbqt
 43 45 0 0 0
SMALL
GASTEIGER

@<TRIPOS>ATOM
      1  C6       -16.0600   14.3000   15.8900 C.3   210  INH210      0.1820
      2  C7       -14.8920   13.6690   15.1860 C.3   210  INH210      0.1980
      3  C8       -16.6640   13.1440   16.6730 C.3   210  INH210      0.1800
      4  C9       -14.5090   12.5030   16.0800 C.3   210  INH210      0.2620
      5  O9       -15.6860   12.0960   16.7640 O.3   210  INH210     -0.3530
      6  C11      -17.9210   12.5740   16.0190 C.3   210  INH210      0.2150
      7  O12      -18.0800   11.1850   16.3320 O.3   210  INH210     -0.2940
      8  P2       -19.1920   10.7670   17.4190 P.3   210  INH210      0.4010
      9  O3       -20.5340   11.1050   16.8070 O.2   210  INH210     -0.6310
     10  O7       -18.8240   11.3590   18.7510 O.3   210  INH210     -0.3070
     11  H        -18.4000   12.2220   18.6160 H     210  INH210      0.2220
     12  O14      -18.8920    9.1810   17.5700 O.3   210  INH210     -0.1950
     13  P3       -17.4910    8.5560   18.0650 P.3   210  INH210      0.4100
     14  O4       -17.8120    7.7000   19.2810 O.2   210  INH210     -0.6310
     15  O8       -16.4500    9.6340   18.1920 O.3   210  INH210     -0.3070
     16  H        -16.3020   10.0450   17.3260 H     210  INH210      0.2220
     17  O13      -17.0000    7.5450   16.8940 O.3   210  INH210     -0.1950
     18  P1       -17.6230    7.0710   15.4680 P.3   210  INH210      0.3990
     19  O1       -16.6200    6.1040   14.8860 O.2   210  INH210     -0.6310
     20  O2       -17.6850    8.4040   14.7670 O.3   210  INH210     -0.3070
     21  H        -17.5930    9.1160   15.4190 H     210  INH210      0.2220
     22  O6       -18.9920    6.4760   15.7770 O.3   210  INH210     -0.3070
     23  H        -18.9520    5.9920   16.6170 H     210  INH210      0.2220
     24  O10      -15.5150   15.2990   16.7660 O.3   210  INH210     -0.3900
     25  H14      -15.2540   14.8940   17.5840 H     210  INH210      0.2100
     26  O11      -13.7920   14.5600   15.0380 O.3   210  INH210     -0.3880
     27  H15      -13.4650   14.8050   15.8960 H     210  INH210      0.2100
     28  N3       -14.0140   11.4130   15.2200 N.pl3 210  INH210     -0.2970
     29  C1       -14.7010   10.3430   14.7250 C.3   210  INH210      0.1900
     30  N2       -13.8990    9.5500   13.9730 N.pl3 210  INH210     -0.3400
     31  C2       -12.7000   10.1330   13.9950 C.2   210  INH210      0.1540
     32  C10      -14.3230    8.3040   13.2800 C.3   210  INH210      0.1570
     33  C4       -11.4060    9.7950   13.3870 C.2   210  INH210      0.3570
     34  C3       -12.7630   11.3460   14.8100 C.2   210  INH210      0.1420
     35  N4       -10.3720   10.6330   13.6210 N.am  210  INH210     -0.0150
     36  O5       -11.3020    8.7840   12.6750 O.2   210  INH210     -0.2590
     37  C5       -10.4970   11.7430   14.3890 C.3   210  INH210      0.7630
     38  H11       -9.4820   10.4260   13.2130 H     210  INH210      0.2740
     39  N1       -11.6570   12.0970   14.9780 N.pl3 210  INH210     -0.3290
     40  N5        -9.4330   12.5480   14.6160 N.3   210  INH210     -0.3870
     41  H1       -11.6980   12.9380   15.5540 H     210  INH210      0.1650
     42  H13       -8.5130   12.3980   14.2540 H     210  INH210      0.1530
     43  H12       -9.7020   13.3150   15.1990 H     210  INH210      0.1530
@<TRIPOS>BOND
     1    36    33    2
     2    38    35    1
     3    32    30    1
     4    33    35   am
     5    33    31    1
     6    35    37    1
     7    30    31    1
     8    30    29    1
     9    31    34    2
    10    42    40    1
    11    37    40    1
    12    37    39    1
    13    40    43    1
    14    29    28    1
    15    20    21    1
    16    20    18    1
    17    34    39    1
    18    34    28    1
    19    19    18    2
    20    39    41    1
    21    26     2    1
    22    26    27    1
    23     2     1    1
    24     2     4    1
    25    28     4    1
    26    18    22    1
    27    18    17    1
    28    22    23    1
    29     1     3    1
    30     1    24    1
    31     6     7    1
    32     6     3    1
    33     4     5    1
    34     7     8    1
    35     3     5    1
    36    24    25    1
    37     9     8    2
    38    17    13    1
    39    16    15    1
    40     8    12    1
    41     8    10    1
    42    12    13    1
    43    13    15    1
    44    13    14    2
    45    11    10    1
