@<TRIPOS>MOLECULE
/tmp/ewbell/vina_2jgb_2jgb_lig/vina/vina3.pdbqt
 43 45 0 0 0
SMALL
GASTEIGER

@<TRIPOS>ATOM
      1  C6       -17.0730   12.6640   15.4310 C.3   210  INH210      0.1820
      2  C7       -15.6930   12.9350   14.9000 C.3   210  INH210      0.1980
      3  C8       -16.8720   11.4470   16.3230 C.3   210  INH210      0.1800
      4  C9       -14.7700   12.3760   15.9680 C.3   210  INH210      0.2620
      5  O9       -15.4720   11.3280   16.6210 O.3   210  INH210     -0.3530
      6  C11      -17.3380   10.1470   15.6710 C.3   210  INH210      0.2150
      7  O12      -16.5670    9.0330   16.1350 O.3   210  INH210     -0.2940
      8  P2       -17.3330    7.6560   16.4670 P.3   210  INH210      0.4010
      9  O3       -17.5680    7.6500   17.9610 O.2   210  INH210     -0.6310
     10  O7       -16.5860    6.5140   15.8370 O.3   210  INH210     -0.3070
     11  H        -16.9150    5.6750   16.1960 H     210  INH210      0.2220
     12  O14      -18.6720    7.8270   15.5670 O.3   210  INH210     -0.1950
     13  P3       -18.9660    7.0260   14.2000 P.3   210  INH210      0.4100
     14  O4       -19.1250    5.5640   14.5880 O.2   210  INH210     -0.6310
     15  O8       -17.9530    7.3910   13.1490 O.3   210  INH210     -0.3070
     16  H        -17.4310    8.1500   13.4520 H     210  INH210      0.2220
     17  O13      -20.4140    7.5330   13.6730 O.3   210  INH210     -0.1950
     18  P1       -21.7650    6.7830   13.1630 P.3   210  INH210      0.3990
     19  O1       -22.0670    7.3660   11.8040 O.2   210  INH210     -0.6310
     20  O2       -22.7150    7.2110   14.2520 O.3   210  INH210     -0.3070
     21  H        -22.5390    6.6960   15.0540 H     210  INH210      0.2220
     22  O6       -21.4520    5.2910   13.1730 O.3   210  INH210     -0.3070
     23  H        -22.2250    4.7970   12.8570 H     210  INH210      0.2220
     24  O10      -17.4470   13.8190   16.1970 O.3   210  INH210     -0.3900
     25  H14      -17.9580   13.5480   16.9500 H     210  INH210      0.2100
     26  O11      -15.4420   14.3220   14.7050 O.3   210  INH210     -0.3880
     27  H15      -15.2420   14.7280   15.5400 H     210  INH210      0.2100
     28  N3       -13.5670   11.8480   15.2990 N.pl3 210  INH210     -0.2970
     29  C1       -12.3140   12.3850   15.2560 C.3   210  INH210      0.1900
     30  N2       -11.4700   11.6070   14.5350 N.pl3 210  INH210     -0.3400
     31  C2       -12.2030   10.5710   14.1280 C.2   210  INH210      0.1540
     32  C10      -10.0310   11.8920   14.2910 C.3   210  INH210      0.1570
     33  C4       -11.8990    9.3790   13.3240 C.2   210  INH210      0.3570
     34  C3       -13.5730   10.7220   14.6150 C.2   210  INH210      0.1420
     35  N4       -12.9080    8.5080   13.0990 N.am  210  INH210     -0.0150
     36  O5       -10.7490    9.1970   12.8970 O.2   210  INH210     -0.2590
     37  C5       -14.1600    8.7070   13.5800 C.3   210  INH210      0.7630
     38  H11      -12.7250    7.6870   12.5580 H     210  INH210      0.2740
     39  N1       -14.4970    9.7860   14.3160 N.pl3 210  INH210     -0.3290
     40  N5       -15.1490    7.8220   13.3180 N.3   210  INH210     -0.3870
     41  H1       -15.4550    9.8950   14.6480 H     210  INH210      0.1650
     42  H13      -15.0430    6.9890   12.7760 H     210  INH210      0.1530
     43  H12      -16.0010    8.1220   13.7470 H     210  INH210      0.1530
@<TRIPOS>BOND
     1    19    18    2
     2    38    35    1
     3    42    40    1
     4    23    22    1
     5    36    33    2
     6    35    33   am
     7    35    37    1
     8    15    16    1
     9    15    13    1
    10    18    22    1
    11    18    17    1
    12    18    20    1
    13    40    37    1
    14    40    43    1
    15    33    31    1
    16    37    39    1
    17    17    13    1
    18    31    30    1
    19    31    34    2
    20    13    14    2
    21    13    12    1
    22    20    21    1
    23    32    30    1
    24    39    34    1
    25    39    41    1
    26    30    29    1
    27    34    28    1
    28    26     2    1
    29    26    27    1
    30     2     1    1
    31     2     4    1
    32    29    28    1
    33    28     4    1
    34     1    24    1
    35     1     3    1
    36    12     8    1
    37     6     7    1
    38     6     3    1
    39    10    11    1
    40    10     8    1
    41     4     5    1
    42     7     8    1
    43    24    25    1
    44     3     5    1
    45     8     9    2
