@<TRIPOS>MOLECULE
/tmp/ewbell/vina_2jgb_2jgb_lig/vina/vina2.pdbqt
 43 45 0 0 0
SMALL
GASTEIGER

@<TRIPOS>ATOM
      1  C6       -17.3480   11.8950   16.2900 C.3   210  INH210      0.1820
      2  C7       -16.4900   11.6650   15.0790 C.3   210  INH210      0.1980
      3  C8       -16.4140   11.5750   17.4480 C.3   210  INH210      0.1800
      4  C9       -15.0760   11.9100   15.5750 C.3   210  INH210      0.2620
      5  O9       -15.0620   11.6070   16.9630 O.3   210  INH210     -0.3530
      6  C11      -16.6740   10.2000   18.0600 C.3   210  INH210      0.2150
      7  O12      -17.7010    9.5030   17.3450 O.3   210  INH210     -0.2940
      8  P2       -17.4730    7.9460   17.0020 P.3   210  INH210      0.4010
      9  O3       -17.4590    7.2160   18.3270 O.2   210  INH210     -0.6310
     10  O7       -16.2950    7.8150   16.0780 O.3   210  INH210     -0.3070
     11  H        -15.5160    8.2260   16.4860 H     210  INH210      0.2220
     12  O14      -18.7680    7.6460   16.0730 O.3   210  INH210     -0.1950
     13  P3       -18.7240    6.8600   14.6660 P.3   210  INH210      0.4100
     14  O4       -17.9700    5.5640   14.9250 O.2   210  INH210     -0.6310
     15  O8       -18.2430    7.7710   13.5690 O.3   210  INH210     -0.3070
     16  H        -18.4740    7.3900   12.7070 H     210  INH210      0.2220
     17  O13      -20.2560    6.4520   14.3200 O.3   210  INH210     -0.1950
     18  P1       -21.4460    7.1420   13.4510 P.3   210  INH210      0.3990
     19  O1       -21.5760    6.3060   12.2010 O.2   210  INH210     -0.6310
     20  O2       -20.8390    8.5040   13.2320 O.3   210  INH210     -0.3070
     21  H        -20.0440    8.4180   12.6840 H     210  INH210      0.2220
     22  O6       -22.6770    7.1560   14.3510 O.3   210  INH210     -0.3070
     23  H        -22.4290    6.8650   15.2420 H     210  INH210      0.2220
     24  O10      -17.7070   13.2850   16.2750 O.3   210  INH210     -0.3900
     25  H14      -17.1920   13.7520   16.9230 H     210  INH210      0.2100
     26  O11      -16.7990   12.5510   14.0090 O.3   210  INH210     -0.3880
     27  H15      -17.4020   13.2190   14.3140 H     210  INH210      0.2100
     28  N3       -14.1720   11.0040   14.8440 N.pl3 210  INH210     -0.2970
     29  C1       -14.4630    9.8090   14.2550 C.3   210  INH210      0.1900
     30  N2       -13.3620    9.2640   13.6790 N.pl3 210  INH210     -0.3400
     31  C2       -12.3760   10.1320   13.9080 C.2   210  INH210      0.1540
     32  C10      -13.3230    7.9710   12.9470 C.3   210  INH210      0.1570
     33  C4       -10.9500   10.1490   13.5540 C.2   210  INH210      0.3570
     34  C3       -12.8930   11.2670   14.6710 C.2   210  INH210      0.1420
     35  N4       -10.2230   11.2150   13.9550 N.am  210  INH210     -0.0150
     36  O5       -10.4650    9.2160   12.8950 O.2   210  INH210     -0.2590
     37  C5       -10.7640   12.2370   14.6630 C.3   210  INH210      0.7630
     38  H11       -9.2510   11.2520   13.7220 H     210  INH210      0.2740
     39  N1       -12.0630   12.2700   15.0230 N.pl3 210  INH210     -0.3290
     40  N5       -10.0000   13.2800   15.0640 N.3   210  INH210     -0.3870
     41  H1       -12.4200   13.0570   15.5630 H     210  INH210      0.1650
     42  H13       -9.0210   13.3770   14.8800 H     210  INH210      0.1530
     43  H12      -10.5560   13.9380   15.5720 H     210  INH210      0.1530
@<TRIPOS>BOND
     1    19    18    2
     2    21    20    1
     3    16    15    1
     4    36    33    2
     5    32    30    1
     6    20    18    1
     7    18    17    1
     8    18    22    1
     9    33    31    1
    10    33    35   am
    11    15    13    1
    12    30    31    1
    13    30    29    1
    14    38    35    1
    15    31    34    2
    16    35    37    1
    17    26    27    1
    18    26     2    1
    19    29    28    1
    20    17    13    1
    21    22    23    1
    22    37    39    1
    23    37    40    1
    24    13    14    2
    25    13    12    1
    26    34    28    1
    27    34    39    1
    28    28     4    1
    29    42    40    1
    30    39    41    1
    31    40    43    1
    32     2     4    1
    33     2     1    1
    34     4     5    1
    35    12     8    1
    36    10    11    1
    37    10     8    1
    38    24     1    1
    39    24    25    1
    40     1     3    1
    41     5     3    1
    42     8     7    1
    43     8     9    2
    44     7     6    1
    45     3     6    1
