@<TRIPOS>MOLECULE
/tmp/ewbell/vina_2jgb_2jgb_lig/vina/vina5.pdbqt
 43 45 0 0 0
SMALL
GASTEIGER

@<TRIPOS>ATOM
      1  C6       -16.7370   13.1180   16.7420 C.3   210  INH210      0.1820
      2  C7       -16.0330   12.7070   15.4790 C.3   210  INH210      0.1980
      3  C8       -15.8410   12.5600   17.8390 C.3   210  INH210      0.1800
      4  C9       -14.5750   12.5940   15.8880 C.3   210  INH210      0.2620
      5  O9       -14.5530   12.2710   17.2720 O.3   210  INH210     -0.3530
      6  C11      -16.3910   11.2780   18.4620 C.3   210  INH210      0.2150
      7  O12      -17.6940   10.9750   17.9520 O.3   210  INH210     -0.2940
      8  P2       -18.0250    9.4500   17.5540 P.3   210  INH210      0.4010
      9  O3       -17.7840    8.6240   18.7980 O.2   210  INH210     -0.6310
     10  O7       -17.2910    9.1030   16.2880 O.3   210  INH210     -0.3070
     11  H        -16.3350    9.1640   16.4410 H     210  INH210      0.2220
     12  O14      -19.5800    9.5790   17.1120 O.3   210  INH210     -0.1950
     13  P3       -20.0830   10.0290   15.6480 P.3   210  INH210      0.4100
     14  O4       -19.2150   11.2110   15.2430 O.2   210  INH210     -0.6310
     15  O8       -21.5790   10.1880   15.6320 O.3   210  INH210     -0.3070
     16  H        -21.9590    9.6150   14.9480 H     210  INH210      0.2220
     17  O13      -19.7160    8.8090   14.6420 O.3   210  INH210     -0.1950
     18  P1       -20.0140    7.2100   14.6400 P.3   210  INH210      0.3990
     19  O1       -19.5750    6.7150   13.2830 O.2   210  INH210     -0.6310
     20  O2       -21.5070    7.2340   14.8440 O.3   210  INH210     -0.3070
     21  H        -21.7100    7.0240   15.7680 H     210  INH210      0.2220
     22  O6       -19.2430    6.6310   15.8210 O.3   210  INH210     -0.3070
     23  H        -18.5210    6.0730   15.4930 H     210  INH210      0.2220
     24  O10      -16.7460   14.5530   16.7530 O.3   210  INH210     -0.3900
     25  H14      -16.6780   14.8630   17.6480 H     210  INH210      0.2100
     26  O11      -16.1800   13.6610   14.4330 O.3   210  INH210     -0.3880
     27  H15      -15.9600   14.5260   14.7590 H     210  INH210      0.2100
     28  N3       -13.9640   11.5090   15.0990 N.pl3 210  INH210     -0.2970
     29  C1       -14.5480   10.3710   14.6250 C.3   210  INH210      0.1900
     30  N2       -13.6570    9.6090   13.9440 N.pl3 210  INH210     -0.3400
     31  C2       -12.5060   10.2810   13.9900 C.2   210  INH210      0.1540
     32  C10      -13.9580    8.3070   13.2910 C.3   210  INH210      0.1570
     33  C4       -11.1650   10.0150   13.4520 C.2   210  INH210      0.3570
     34  C3       -12.6950   11.5180   14.7460 C.2   210  INH210      0.1420
     35  N4       -10.2060   10.9370   13.6910 N.am  210  INH210     -0.0150
     36  O5       -10.9560    8.9850   12.7920 O.2   210  INH210     -0.2590
     37  C5       -10.4460   12.0670   14.4020 C.3   210  INH210      0.7630
     38  H11       -9.2860   10.7810   13.3310 H     210  INH210      0.2740
     39  N1       -11.6550   12.3570   14.9260 N.pl3 210  INH210     -0.3290
     40  N5        -9.4560   12.9580   14.6370 N.3   210  INH210     -0.3870
     41  H1       -11.7830   13.2160   15.4610 H     210  INH210      0.1650
     42  H13       -8.5120   12.8620   14.3210 H     210  INH210      0.1530
     43  H12       -9.8050   13.7260   15.1730 H     210  INH210      0.1530
@<TRIPOS>BOND
     1    36    33    2
     2    19    18    2
     3    32    30    1
     4    38    35    1
     5    33    35   am
     6    33    31    1
     7    35    37    1
     8    30    31    1
     9    30    29    1
    10    31    34    2
    11    42    40    1
    12    37    40    1
    13    37    39    1
    14    26    27    1
    15    26     2    1
    16    29    28    1
    17    40    43    1
    18    18    17    1
    19    18    20    1
    20    18    22    1
    21    17    13    1
    22    34    39    1
    23    34    28    1
    24    20    21    1
    25    39    41    1
    26    16    15    1
    27    28     4    1
    28    14    13    2
    29     2     4    1
    30     2     1    1
    31    23    22    1
    32    15    13    1
    33    13    12    1
    34     4     5    1
    35    10    11    1
    36    10     8    1
    37     1    24    1
    38     1     3    1
    39    24    25    1
    40    12     8    1
    41     5     3    1
    42     8     7    1
    43     8     9    2
    44     3     6    1
    45     7     6    1
