@<TRIPOS>MOLECULE
./ligand/2i2c_lig.pdb
 62 67 0 0 0
SMALL
GASTEIGER

@<TRIPOS>ATOM
      1  N1        18.5590    3.0940    6.7060 N.3   1065  INH1065    -0.2985
      2  C1        18.7240    4.2500    7.3660 C.3   1065  INH1065     0.2004
      3  N2        19.9290    4.5530    7.8720 N.2   1065  INH1065    -0.2420
      4  C2        20.1590    5.6710    8.5410 C.2   1065  INH1065     0.1049
      5  N3        19.1980    6.5590    8.7380 N.pl3 1065  INH1065    -0.1840
      6  C3        17.9580    6.3190    8.2600 C.ar  1065  INH1065     0.1528
      7  C4        17.6790    5.1590    7.5570 C.ar  1065  INH1065     0.1287
      8  N4        16.3880    5.2020    7.2170 N.ar  1065  INH1065    -0.2346
      9  C5        15.8740    6.3500    7.6830 C.ar  1065  INH1065     0.0999
     10  N5        16.8390    7.0310    8.3190 N.ar  1065  INH1065    -0.2877
     11  C6        16.7510    8.3490    9.0050 C.3   1065  INH1065     0.1664
     12  O1        15.5520    8.4440    9.8090 O.3   1065  INH1065    -0.3471
     13  C7        16.6510    9.4640    7.9550 C.3   1065  INH1065     0.1285
     14  O2        17.8330   10.2710    8.0070 O.3   1065  INH1065    -0.3847
     15  C8        15.4190   10.2640    8.4070 C.3   1065  INH1065     0.1122
     16  O3        15.6470   11.6680    8.3270 O.3   1065  INH1065    -0.3865
     17  C9        15.2430    9.8360    9.8630 C.3   1065  INH1065     0.0994
     18  C10       13.7780   10.0340   10.2670 C.3   1065  INH1065     0.0328
     19  S1        13.3070    9.3070   11.8850 S.3   1065  INH1065    -0.0904
     20  S2        14.9200    9.5490   13.1210 S.3   1065  INH1065    -0.0904
     21  C11       15.4540    7.8380   13.5400 C.3   1065  INH1065     0.0328
     22  C12       16.9750    7.6710   13.8250 C.3   1065  INH1065     0.0994
     23  O4        17.7440    8.5720   12.9740 O.3   1065  INH1065    -0.3471
     24  C13       17.3480    8.0260   15.2750 C.3   1065  INH1065     0.1122
     25  O5        18.2810    7.0580   15.7880 O.3   1065  INH1065    -0.3865
     26  C14       18.0060    9.4000   15.1540 C.3   1065  INH1065     0.1285
     27  O6        18.9740    9.6180   16.1940 O.3   1065  INH1065    -0.3847
     28  C15       18.7060    9.2610   13.8150 C.3   1065  INH1065     0.1666
     29  N6        19.0230   10.5760   13.1930 N.ar  1065  INH1065    -0.2855
     30  C16       18.1550   11.5260   12.8280 C.ar  1065  INH1065     0.1004
     31  N7        18.8190   12.5570   12.3050 N.ar  1065  INH1065    -0.2306
     32  C17       20.1160   12.2540   12.3240 C.ar  1065  INH1065     0.1473
     33  C18       20.2450   10.9910   12.8880 C.ar  1065  INH1065     0.1674
     34  N8        21.4650   10.4380   13.0380 N.ar  1065  INH1065    -0.2159
     35  C19       22.5480   11.0940   12.6400 C.ar  1065  INH1065     0.1205
     36  N9        22.4620   12.3040   12.0960 N.ar  1065  INH1065    -0.2188
     37  C20       21.2760   12.9140   11.9140 C.ar  1065  INH1065     0.1472
     38  N10       21.2180   14.1270   11.3620 N.pl3 1065  INH1065    -0.3413
     39  H1        17.6380    2.8520    6.3140 H     1065  INH1065     0.1209
     40  H2        19.3530    2.4480    6.5910 H     1065  INH1065     0.1209
     41  H3        21.1510    5.8630    8.9340 H     1065  INH1065     0.1015
     42  H4        14.8470    6.6740    7.5650 H     1065  INH1065     0.1030
     43  H5        17.6410    8.4930    9.6360 H     1065  INH1065     0.0866
     44  H6        16.5140    9.0570    6.9420 H     1065  INH1065     0.0665
     45  H7        17.7730   10.9620    7.3580 H     1065  INH1065     0.2101
     46  H8        14.5370   10.0000    7.8060 H     1065  INH1065     0.0647
     47  H9        14.8690   12.1320    8.6130 H     1065  INH1065     0.2100
     48  H10       15.9130   10.3830   10.5430 H     1065  INH1065     0.0632
     49  H11       13.1460    9.5760    9.4920 H     1065  INH1065     0.0411
     50  H12       13.5800   11.1150   10.3090 H     1065  INH1065     0.0411
     51  H13       14.9030    7.5190   14.4370 H     1065  INH1065     0.0411
     52  H14       15.1920    7.1830   12.6960 H     1065  INH1065     0.0411
     53  H15       17.2590    6.6280   13.6200 H     1065  INH1065     0.0632
     54  H16       16.4570    8.0680   15.9190 H     1065  INH1065     0.0647
     55  H17       18.5080    7.2810   16.6830 H     1065  INH1065     0.2100
     56  H18       17.2640   10.2120   15.1530 H     1065  INH1065     0.0665
     57  H19       19.3630   10.4790   16.0900 H     1065  INH1065     0.2101
     58  H20       19.6300    8.6740   13.9260 H     1065  INH1065     0.0866
     59  H21       17.0780   11.4670   12.9400 H     1065  INH1065     0.1030
     60  H22       23.5220   10.6340   12.7610 H     1065  INH1065     0.1048
     61  H23       22.0840   14.6000   11.0650 H     1065  INH1065     0.1438
     62  H24       20.3080   14.5910   11.2330 H     1065  INH1065     0.1438
@<TRIPOS>BOND
     1    39     1    1
     2    40     1    1
     3     1     2    1
     4    44    13    1
     5     8     7   ar
     6     8     9   ar
     7    45    14    1
     8     2     7    1
     9     2     3    1
    10     7     6   ar
    11    42     9    1
    12     9    10   ar
    13    46    15    1
    14     3     4    2
    15    13    14    1
    16    13    15    1
    17    13    11    1
    18     6    10   ar
    19     6     5    1
    20    10    11    1
    21    16    15    1
    22    16    47    1
    23    15    17    1
    24     4     5    1
    25     4    41    1
    26    11    43    1
    27    11    12    1
    28    49    18    1
    29    12    17    1
    30    17    18    1
    31    17    48    1
    32    18    50    1
    33    18    19    1
    34    61    38    1
    35    62    38    1
    36    38    37    1
    37    19    20    1
    38    37    36   ar
    39    37    32   ar
    40    36    35   ar
    41    31    32   ar
    42    31    30   ar
    43    32    33   ar
    44    35    60    1
    45    35    34   ar
    46    52    21    1
    47    30    59    1
    48    30    29   ar
    49    33    34   ar
    50    33    29   ar
    51    23    28    1
    52    23    22    1
    53    20    21    1
    54    29    28    1
    55    21    22    1
    56    21    51    1
    57    53    22    1
    58    28    58    1
    59    28    26    1
    60    22    24    1
    61    56    26    1
    62    26    24    1
    63    26    27    1
    64    24    25    1
    65    24    54    1
    66    25    55    1
    67    57    27    1
