@<TRIPOS>MOLECULE
/tmp/ewbell/vina_2i2c_2i2c_lig/vina/vina5.pdbqt
 52 57 0 0 0
SMALL
GASTEIGER

@<TRIPOS>ATOM
      1  S1        32.6170    0.6210    7.9820 S.3   1065  INH1065    -0.0950
      2  C10       31.6180    0.7450    9.5170 C.3   1065  INH1065     0.1200
      3  C9        31.8030   -0.4060   10.5120 C.3   1065  INH1065     0.1650
      4  O1        32.2870    0.0960   11.7570 O.3   1065  INH1065    -0.3550
      5  C6        31.9950   -0.9380   12.7260 C.3   1065  INH1065     0.2620
      6  C7        30.6810   -1.5900   12.2730 C.3   1065  INH1065     0.1980
      7  C8        30.4300   -0.9570   10.8950 C.3   1065  INH1065     0.1800
      8  N5        31.8190   -0.3680   14.0890 N.pl3 1065  INH1065    -0.2970
      9  C3        31.2070    0.7880   14.3170 C.2   1065  INH1065     0.1380
     10  N3        30.6410    1.6820   13.4770 N.pl3 1065  INH1065    -0.3370
     11  C4        31.2210    1.0060   15.6840 C.2   1065  INH1065     0.1070
     12  C2        30.0850    2.7780   13.9660 C.3   1065  INH1065     0.1790
     13  H         30.6430    1.5190   12.5060 H     1065  INH1065     0.1680
     14  N2        30.0820    3.0210   15.2670 N.3   1065  INH1065    -0.3520
     15  C1        30.6270    2.1800   16.1590 C.3   1065  INH1065     0.6860
     16  H2        29.6480    3.8800   15.6040 H     1065  INH1065     0.1620
     17  N1        30.5800    2.4840   17.4640 N.3   1065  INH1065    -0.0950
     18  H1        30.9960    1.8450   18.1570 H     1065  INH1065     0.2600
     19  H2        30.1290    3.3560   17.7740 H     1065  INH1065     0.2600
     20  N4        31.8390   -0.0360   16.2460 N.pl3 1065  INH1065    -0.3490
     21  C5        32.2070   -0.8770   15.2680 C.3   1065  INH1065     0.1870
     22  H4        32.0020   -0.1680   17.2440 H     1065  INH1065     0.1660
     23  O2        30.8690   -3.0050   12.1600 O.3   1065  INH1065    -0.3880
     24  H7        30.0420   -3.4470   12.3100 H     1065  INH1065     0.2100
     25  O3        30.0010   -1.9260    9.9430 O.3   1065  INH1065    -0.3900
     26  H9        30.7580   -2.2960    9.5040 H     1065  INH1065     0.2100
     27  S2        31.3160    0.8660    6.4220 S.3   1065  INH1065    -0.0950
     28  C11       30.6610    2.5750    6.6180 C.3   1065  INH1065     0.1200
     29  C12       29.1300    2.7280    6.3860 C.3   1065  INH1065     0.1650
     30  O4        28.6480    1.6600    5.5170 O.3   1065  INH1065    -0.3550
     31  C15       27.4620    1.0910    6.1300 C.3   1065  INH1065     0.2620
     32  C14       27.7090    1.2200    7.6220 C.3   1065  INH1065     0.1980
     33  C13       28.3200    2.6190    7.6890 C.3   1065  INH1065     0.1800
     34  N6        27.3320   -0.3250    5.6890 N.pl3 1065  INH1065    -0.2970
     35  C16       27.9830   -1.3850    6.1790 C.3   1065  INH1065     0.1880
     36  N7        27.6020   -2.4820    5.5240 N.pl3 1065  INH1065    -0.3460
     37  C17       26.7140   -2.1140    4.6020 C.2   1065  INH1065     0.1220
     38  H7        27.9300   -3.4320    5.6980 H     1065  INH1065     0.1670
     39  C20       25.9820   -2.7960    3.6280 C.3   1065  INH1065     0.1310
     40  C18       26.5440   -0.7390    4.7060 C.2   1065  INH1065     0.1420
     41  N9        25.1400   -2.0950    2.8470 N.3   1065  INH1065    -0.3370
     42  C19       25.0020   -0.7790    2.9750 C.3   1065  INH1065     0.1830
     43  H9        24.5940   -2.5850    2.1390 H     1065  INH1065     0.1680
     44  N8        25.6840   -0.0990    3.8890 N.pl3 1065  INH1065    -0.3360
     45  H8        25.5580    0.9090    3.9730 H     1065  INH1065     0.1680
     46  N10       26.1040   -4.1160    3.4760 N.3   1065  INH1065    -0.3830
     47  H23       26.8880   -4.5010    2.9300 H     1065  INH1065     0.1570
     48  H24       25.4140   -4.7490    3.9030 H     1065  INH1065     0.1570
     49  O6        26.4630    1.1490    8.3340 O.3   1065  INH1065    -0.3880
     50  H19       25.8320    0.6550    7.8230 H     1065  INH1065     0.2100
     51  O5        27.2890    3.6240    7.7060 O.3   1065  INH1065    -0.3900
     52  H17       26.5530    3.3130    8.2200 H     1065  INH1065     0.2100
@<TRIPOS>BOND
     1    43    41    1
     2    41    42    1
     3    41    39    1
     4    47    46    1
     5    42    44    1
     6    46    39    1
     7    46    48    1
     8    39    37    1
     9    44    45    1
    10    44    40    1
    11    37    40    2
    12    37    36    1
    13    40    34    1
    14    30    31    1
    15    30    29    1
    16    36    38    1
    17    36    35    1
    18    34    31    1
    19    34    35    1
    20    31    32    1
    21    29    28    1
    22    29    33    1
    23    27    28    1
    24    27     1    1
    25    32    33    1
    26    32    49    1
    27    33    51    1
    28    51    52    1
    29    50    49    1
    30     1     2    1
    31    26    25    1
    32     2     3    1
    33    25     7    1
    34     3     7    1
    35     3     4    1
    36     7     6    1
    37     4     5    1
    38    23     6    1
    39    23    24    1
    40     6     5    1
    41    13    10    1
    42     5     8    1
    43    10    12    1
    44    10     9    1
    45    12    14    1
    46     8     9    1
    47     8    21    1
    48     9    11    2
    49    14    16    1
    50    14    15    1
    51    21    20    1
    52    11    15    1
    53    11    20    1
    54    15    17    1
    55    20    22    1
    56    17    19    1
    57    17    18    1
