@<TRIPOS>MOLECULE
/tmp/ewbell/vina_2i2c_2i2c_lig/vina/vina4.pdbqt
 52 57 0 0 0
SMALL
GASTEIGER

@<TRIPOS>ATOM
      1  S1        31.1920   -0.2310    7.9770 S.3   1065  INH1065    -0.0950
      2  C10       32.8900   -0.5350    8.6040 C.3   1065  INH1065     0.1200
      3  C9        32.9830   -1.4760    9.8100 C.3   1065  INH1065     0.1650
      4  O1        32.7520   -0.7500   11.0160 O.3   1065  INH1065    -0.3550
      5  C6        32.4080   -1.7490   12.0040 C.3   1065  INH1065     0.2620
      6  C7        31.6430   -2.8470   11.2530 C.3   1065  INH1065     0.1980
      7  C8        31.7980   -2.4400    9.7800 C.3   1065  INH1065     0.1800
      8  N5        31.5380   -1.1800   13.0690 N.pl3 1065  INH1065    -0.2970
      9  C3        31.8560   -0.0900   13.7580 C.2   1065  INH1065     0.1380
     10  N3        32.9370    0.7170   13.7080 N.pl3 1065  INH1065    -0.3370
     11  C4        30.8270    0.1530   14.6530 C.2   1065  INH1065     0.1070
     12  C2        33.0140    1.7600   14.5190 C.3   1065  INH1065     0.1790
     13  H         33.6650    0.5300   13.0720 H     1065  INH1065     0.1680
     14  N2        32.0510    2.0210   15.3880 N.3   1065  INH1065    -0.3520
     15  C1        30.9510    1.2620   15.4960 C.3   1065  INH1065     0.6860
     16  H2        32.1500    2.8310   16.0000 H     1065  INH1065     0.1620
     17  N1        30.0100    1.5900   16.3930 N.3   1065  INH1065    -0.0950
     18  H1        29.1610    1.0140   16.4830 H     1065  INH1065     0.2600
     19  H2        30.1350    2.4190   16.9920 H     1065  INH1065     0.2600
     20  N4        29.9090   -0.8000   14.4710 N.pl3 1065  INH1065    -0.3490
     21  C5        30.3460   -1.6170   13.5010 C.3   1065  INH1065     0.1870
     22  H4        29.0300   -0.8900   14.9800 H     1065  INH1065     0.1660
     23  O2        32.2640   -4.1130   11.5030 O.3   1065  INH1065    -0.3880
     24  H7        33.0840   -3.9780   11.9630 H     1065  INH1065     0.2100
     25  O3        32.0940   -3.5630    8.9540 O.3   1065  INH1065    -0.3900
     26  H9        31.6230   -4.3240    9.2730 H     1065  INH1065     0.2100
     27  S2        31.3960    0.8600    6.2570 S.3   1065  INH1065    -0.0950
     28  C11       30.7160    2.5200    6.6690 C.3   1065  INH1065     0.1200
     29  C12       29.1920    2.6950    6.4040 C.3   1065  INH1065     0.1650
     30  O4        28.7130    1.6310    5.5280 O.3   1065  INH1065    -0.3550
     31  C15       27.5050    1.0830    6.1190 C.3   1065  INH1065     0.2620
     32  C14       27.7230    1.2130    7.6150 C.3   1065  INH1065     0.1980
     33  C13       28.3530    2.6040    7.6900 C.3   1065  INH1065     0.1800
     34  N6        27.3630   -0.3330    5.6800 N.pl3 1065  INH1065    -0.2970
     35  C16       28.0130   -1.3970    6.1650 C.3   1065  INH1065     0.1880
     36  N7        27.6190   -2.4920    5.5150 N.pl3 1065  INH1065    -0.3460
     37  C17       26.7240   -2.1190    4.6010 C.2   1065  INH1065     0.1220
     38  H7        27.9430   -3.4430    5.6870 H     1065  INH1065     0.1670
     39  C20       25.9800   -2.7980    3.6340 C.3   1065  INH1065     0.1310
     40  C18       26.5630   -0.7430    4.7060 C.2   1065  INH1065     0.1420
     41  N9        25.1340   -2.0920    2.8600 N.3   1065  INH1065    -0.3370
     42  C19       25.0060   -0.7750    2.9880 C.3   1065  INH1065     0.1830
     43  H9        24.5790   -2.5800    2.1580 H     1065  INH1065     0.1680
     44  N8        25.7000   -0.0990    3.8950 N.pl3 1065  INH1065    -0.3360
     45  H8        25.5800    0.9100    3.9790 H     1065  INH1065     0.1680
     46  N10       26.0920   -4.1180    3.4820 N.3   1065  INH1065    -0.3830
     47  H23       26.7880   -4.5040    2.8270 H     1065  INH1065     0.1570
     48  H24       25.4840   -4.7520    4.0180 H     1065  INH1065     0.1570
     49  O6        26.4620    1.1650    8.3020 O.3   1065  INH1065    -0.3880
     50  H19       26.5830    0.7800    9.1620 H     1065  INH1065     0.2100
     51  O5        27.3380    3.6240    7.6820 O.3   1065  INH1065    -0.3900
     52  H17       26.9290    3.6700    8.5380 H     1065  INH1065     0.2100
@<TRIPOS>BOND
     1    43    41    1
     2    47    46    1
     3    41    42    1
     4    41    39    1
     5    42    44    1
     6    46    39    1
     7    46    48    1
     8    39    37    1
     9    44    45    1
    10    44    40    1
    11    37    40    2
    12    37    36    1
    13    40    34    1
    14    36    38    1
    15    36    35    1
    16    30    31    1
    17    30    29    1
    18    34    31    1
    19    34    35    1
    20    31    32    1
    21    27    28    1
    22    27     1    1
    23    29    28    1
    24    29    33    1
    25    32    33    1
    26    32    49    1
    27    51    33    1
    28    51    52    1
    29     1     2    1
    30    49    50    1
    31     2     3    1
    32    25    26    1
    33    25     7    1
    34     7     3    1
    35     7     6    1
    36     3     4    1
    37     4     5    1
    38     6    23    1
    39     6     5    1
    40    23    24    1
    41     5     8    1
    42     8    21    1
    43     8     9    1
    44    13    10    1
    45    21    20    1
    46    10     9    1
    47    10    12    1
    48     9    11    2
    49    20    11    1
    50    20    22    1
    51    12    14    1
    52    11    15    1
    53    14    15    1
    54    14    16    1
    55    15    17    1
    56    17    18    1
    57    17    19    1
