@<TRIPOS>MOLECULE
/tmp/ewbell/vina_2i2c_2i2c_lig/vina/vina1.pdbqt
 52 57 0 0 0
SMALL
GASTEIGER

@<TRIPOS>ATOM
      1  S1        32.3220   -0.0570    7.0400 S.3   1065  INH1065    -0.0950
      2  C10       32.5740    1.7590    7.1120 C.3   1065  INH1065     0.1200
      3  C9        31.4070    2.6020    6.5880 C.3   1065  INH1065     0.1650
      4  O1        30.4380    1.7620    5.9620 O.3   1065  INH1065    -0.3550
      5  C6        29.2210    2.5430    5.9240 C.3   1065  INH1065     0.2620
      6  C7        29.2270    3.4070    7.1930 C.3   1065  INH1065     0.1980
      7  C8        30.6280    3.1640    7.7770 C.3   1065  INH1065     0.1800
      8  N5        28.0170    1.6680    5.9280 N.pl3 1065  INH1065    -0.2970
      9  C3        27.9180    0.5700    5.1890 C.2   1065  INH1065     0.1380
     10  N3        28.7740   -0.0010    4.3150 N.pl3 1065  INH1065    -0.3370
     11  C4        26.6780    0.0070    5.4410 C.2   1065  INH1065     0.1070
     12  C2        28.4290   -1.1190    3.6950 C.3   1065  INH1065     0.1790
     13  H         29.6500    0.4110    4.1390 H     1065  INH1065     0.1680
     14  N2        27.2520   -1.6830    3.9100 N.3   1065  INH1065    -0.3520
     15  C1        26.3510   -1.1710    4.7610 C.3   1065  INH1065     0.6860
     16  H2        27.0210   -2.5410    3.4090 H     1065  INH1065     0.1620
     17  N1        25.1800   -1.8000    4.9380 N.3   1065  INH1065    -0.0950
     18  H1        24.4810   -1.4150    5.5890 H     1065  INH1065     0.2600
     19  H2        24.9790   -2.6690    4.4220 H     1065  INH1065     0.2600
     20  N4        26.0640    0.7840    6.3370 N.pl3 1065  INH1065    -0.3490
     21  C5        26.8840    1.8030    6.6340 C.3   1065  INH1065     0.1870
     22  H4        25.1350    0.6290    6.7270 H     1065  INH1065     0.1660
     23  O2        29.0540    4.7820    6.8310 O.3   1065  INH1065    -0.3880
     24  H7        28.4120    4.8470    6.1340 H     1065  INH1065     0.2100
     25  O3        31.2240    4.3760    8.2310 O.3   1065  INH1065    -0.3900
     26  H9        31.3030    4.3550    9.1780 H     1065  INH1065     0.2100
     27  S2        31.2520   -0.5610    8.7100 S.3   1065  INH1065    -0.0950
     28  C11       32.0860    0.3280   10.0900 C.3   1065  INH1065     0.1200
     29  C12       31.1650    1.2630   10.9260 C.3   1065  INH1065     0.1650
     30  O4        30.7620    0.5950   12.1590 O.3   1065  INH1065    -0.3550
     31  C15       30.9760    1.5230   13.2550 C.3   1065  INH1065     0.2620
     32  C14       32.1840    2.3360   12.8310 C.3   1065  INH1065     0.1980
     33  C13       31.8710    2.5620   11.3520 C.3   1065  INH1065     0.1800
     34  N6        31.2170    0.7400   14.4980 N.pl3 1065  INH1065    -0.2970
     35  C16       30.8870    1.0870   15.7470 C.3   1065  INH1065     0.1880
     36  N7        31.2700    0.1280   16.5900 N.pl3 1065  INH1065    -0.3460
     37  C17       31.8610   -0.8270   15.8740 C.2   1065  INH1065     0.1220
     38  H7        31.1350    0.1270   17.6010 H     1065  INH1065     0.1670
     39  C20       32.4610   -2.0480   16.1880 C.3   1065  INH1065     0.1310
     40  C18       31.8290   -0.4360   14.5420 C.2   1065  INH1065     0.1420
     41  N9        32.9660   -2.7930   15.1870 N.3   1065  INH1065    -0.3370
     42  C19       32.9170   -2.3880   13.9220 C.3   1065  INH1065     0.1830
     43  H9        33.3970   -3.6920   15.4050 H     1065  INH1065     0.1680
     44  N8        32.3560   -1.2310   13.5900 N.pl3 1065  INH1065    -0.3360
     45  H8        32.3250   -0.9430   12.6120 H     1065  INH1065     0.1680
     46  N10       32.5270   -2.4780   17.4490 N.3   1065  INH1065    -0.3830
     47  H23       31.6630   -2.6020   17.9970 H     1065  INH1065     0.1570
     48  H24       33.4410   -2.6850   17.8750 H     1065  INH1065     0.1570
     49  O6        32.2230    3.5750   13.5600 O.3   1065  INH1065    -0.3880
     50  H19       32.4570    4.2830   12.9710 H     1065  INH1065     0.2100
     51  O5        30.9780    3.6780   11.1860 O.3   1065  INH1065    -0.3900
     52  H17       30.3450    3.6850   11.8940 H     1065  INH1065     0.2100
@<TRIPOS>BOND
     1    16    14    1
     2    12    14    1
     3    12    10    1
     4    14    15    1
     5    13    10    1
     6    10     9    1
     7    19    17    1
     8    15    17    1
     9    15    11    1
    10    17    18    1
    11     9    11    2
    12     9     8    1
    13    11    20    1
    14     5     8    1
    15     5     4    1
    16     5     6    1
    17     8    21    1
    18     4     3    1
    19    24    23    1
    20    20    21    1
    21    20    22    1
    22     3     2    1
    23     3     7    1
    24    23     6    1
    25     1     2    1
    26     1    27    1
    27     6     7    1
    28     7    25    1
    29    25    26    1
    30    27    28    1
    31    28    29    1
    32    29    33    1
    33    29    30    1
    34    51    33    1
    35    51    52    1
    36    33    32    1
    37    30    31    1
    38    45    44    1
    39    32    31    1
    40    32    49    1
    41    50    49    1
    42    31    34    1
    43    44    42    1
    44    44    40    1
    45    42    41    1
    46    34    40    1
    47    34    35    1
    48    40    37    2
    49    41    43    1
    50    41    39    1
    51    35    36    1
    52    37    39    1
    53    37    36    1
    54    39    46    1
    55    36    38    1
    56    46    48    1
    57    46    47    1
