@<TRIPOS>MOLECULE
/tmp/ewbell/vina_2i2c_2i2c_lig/vina/vina3.pdbqt
 52 57 0 0 0
SMALL
GASTEIGER

@<TRIPOS>ATOM
      1  S1        30.9560   -1.4610    6.1050 S.3   1065  INH1065    -0.0950
      2  C10       32.7240   -0.9970    6.2680 C.3   1065  INH1065     0.1200
      3  C9        33.3910   -1.4170    7.5810 C.3   1065  INH1065     0.1650
      4  O1        32.6480   -0.9140    8.6910 O.3   1065  INH1065    -0.3550
      5  C6        33.0620   -1.7140    9.8230 C.3   1065  INH1065     0.2620
      6  C7        33.3450   -3.1190    9.2730 C.3   1065  INH1065     0.1980
      7  C8        33.2460   -2.9280    7.7520 C.3   1065  INH1065     0.1800
      8  N5        31.9890   -1.7930   10.8510 N.pl3 1065  INH1065    -0.2970
      9  C3        32.1330   -2.4420   12.0000 C.2   1065  INH1065     0.1380
     10  N3        33.1690   -3.1450   12.5070 N.pl3 1065  INH1065    -0.3370
     11  C4        30.9510   -2.3070   12.7080 C.2   1065  INH1065     0.1070
     12  C2        33.0580   -3.7060   13.7000 C.3   1065  INH1065     0.1790
     13  H         34.0020   -3.2390   11.9920 H     1065  INH1065     0.1680
     14  N2        31.9420   -3.6000   14.4040 N.3   1065  INH1065    -0.3520
     15  C1        30.8730   -2.9210   13.9620 C.3   1065  INH1065     0.6860
     16  H2        31.8930   -4.0520   15.3160 H     1065  INH1065     0.1620
     17  N1        29.7770   -2.8460   14.7320 N.3   1065  INH1065    -0.0950
     18  H1        28.9510   -2.3260   14.4020 H     1065  INH1065     0.2600
     19  H2        29.7610   -3.3070   15.6520 H     1065  INH1065     0.2600
     20  N4        30.1240   -1.5690   11.9630 N.pl3 1065  INH1065    -0.3490
     21  C5        30.7600   -1.2550   10.8240 C.3   1065  INH1065     0.1870
     22  H4        29.1760   -1.2920   12.2160 H     1065  INH1065     0.1660
     23  O2        34.6670   -3.5190    9.6540 O.3   1065  INH1065    -0.3880
     24  H7        35.1860   -3.6790    8.8750 H     1065  INH1065     0.2100
     25  O3        34.2960   -3.6070    7.0680 O.3   1065  INH1065    -0.3900
     26  H9        34.6540   -4.2840    7.6310 H     1065  INH1065     0.2100
     27  S2        29.9080    0.2900    5.9470 S.3   1065  INH1065    -0.0950
     28  C11       28.8410    0.3380    7.4460 C.3   1065  INH1065     0.1200
     29  C12       28.6640    1.7450    8.0870 C.3   1065  INH1065     0.1650
     30  O4        29.2290    1.7560    9.4310 O.3   1065  INH1065    -0.3550
     31  C15       30.0670    2.9360    9.5490 C.3   1065  INH1065     0.2620
     32  C14       30.6310    3.1400    8.1550 C.3   1065  INH1065     0.1980
     33  C13       29.3960    2.8490    7.3030 C.3   1065  INH1065     0.1800
     34  N6        31.1230    2.6680   10.5630 N.pl3 1065  INH1065    -0.2970
     35  C16       32.3530    2.1890   10.3400 C.3   1065  INH1065     0.1880
     36  N7        33.0050    2.0840   11.4980 N.pl3 1065  INH1065    -0.3460
     37  C17       32.1800    2.4830   12.4650 C.2   1065  INH1065     0.1220
     38  H7        33.9630    1.7560   11.6220 H     1065  INH1065     0.1670
     39  C20       32.2850    2.5890   13.8530 C.3   1065  INH1065     0.1310
     40  C18       30.9810    2.8530   11.8680 C.2   1065  INH1065     0.1420
     41  N9        31.2290    3.0550   14.5450 N.3   1065  INH1065    -0.3370
     42  C19       30.0970    3.4010   13.9400 C.3   1065  INH1065     0.1830
     43  H9        31.3000    3.1460   15.5580 H     1065  INH1065     0.1680
     44  N8        29.9620    3.3100   12.6230 N.pl3 1065  INH1065    -0.3360
     45  H8        29.0850    3.5860   12.1810 H     1065  INH1065     0.1680
     46  N10       33.4090    2.2460   14.4850 N.3   1065  INH1065    -0.3830
     47  H23       34.3130    2.6270   14.1710 H     1065  INH1065     0.1570
     48  H24       33.3720    1.6000   15.2860 H     1065  INH1065     0.1570
     49  O6        31.0750    4.4980    7.9990 O.3   1065  INH1065    -0.3880
     50  H19       31.4990    4.7870    8.7990 H     1065  INH1065     0.2100
     51  O5        28.5570    4.0140    7.2070 O.3   1065  INH1065    -0.3900
     52  H17       28.7730    4.6180    7.9080 H     1065  INH1065     0.2100
@<TRIPOS>BOND
     1    27     1    1
     2    27    28    1
     3     1     2    1
     4     2     3    1
     5    25    26    1
     6    25     7    1
     7    51    33    1
     8    51    52    1
     9    33    29    1
    10    33    32    1
    11    28    29    1
    12     3     7    1
    13     3     4    1
    14     7     6    1
    15    49    32    1
    16    49    50    1
    17    29    30    1
    18    32    31    1
    19     4     5    1
    20    24    23    1
    21     6    23    1
    22     6     5    1
    23    30    31    1
    24    31    34    1
    25     5     8    1
    26    35    34    1
    27    35    36    1
    28    34    40    1
    29    21     8    1
    30    21    20    1
    31     8     9    1
    32    36    38    1
    33    36    37    1
    34    40    37    2
    35    40    44    1
    36    20    22    1
    37    20    11    1
    38    13    10    1
    39     9    10    1
    40     9    11    2
    41    45    44    1
    42    37    39    1
    43    10    12    1
    44    44    42    1
    45    11    15    1
    46    12    14    1
    47    39    46    1
    48    39    41    1
    49    42    41    1
    50    15    14    1
    51    15    17    1
    52    47    46    1
    53    18    17    1
    54    14    16    1
    55    46    48    1
    56    41    43    1
    57    17    19    1
