@<TRIPOS>MOLECULE
/tmp/ewbell/vina_2i2c_2i2c_lig/vina/vina2.pdbqt
 52 57 0 0 0
SMALL
GASTEIGER

@<TRIPOS>ATOM
      1  S1        33.3290    1.2690    4.9380 S.3   1065  INH1065    -0.0950
      2  C10       32.6090    2.0680    6.4250 C.3   1065  INH1065     0.1200
      3  C9        31.3290    2.8750    6.1790 C.3   1065  INH1065     0.1650
      4  O1        30.3320    2.0420    5.5890 O.3   1065  INH1065    -0.3550
      5  C6        29.0780    2.7270    5.8180 C.3   1065  INH1065     0.2620
      6  C7        29.2170    3.4330    7.1740 C.3   1065  INH1065     0.1980
      7  C8        30.7000    3.2310    7.5240 C.3   1065  INH1065     0.1800
      8  N5        27.9410    1.7680    5.8750 N.pl3 1065  INH1065    -0.2970
      9  C3        27.8760    0.6770    5.1220 C.2   1065  INH1065     0.1380
     10  N3        28.7170    0.1820    4.1870 N.pl3 1065  INH1065    -0.3370
     11  C4        26.6960    0.0220    5.4340 C.2   1065  INH1065     0.1070
     12  C2        28.4160   -0.9470    3.5670 C.3   1065  INH1065     0.1790
     13  H         29.5490    0.6600    3.9690 H     1065  INH1065     0.1680
     14  N2        27.2960   -1.5980    3.8390 N.3   1065  INH1065    -0.3520
     15  C1        26.4130   -1.1650    4.7520 C.3   1065  INH1065     0.6860
     16  H2        27.0970   -2.4620    3.3360 H     1065  INH1065     0.1620
     17  N1        25.3020   -1.8790    4.9840 N.3   1065  INH1065    -0.0950
     18  H1        24.6190   -1.5560    5.6830 H     1065  INH1065     0.2600
     19  H2        25.1330   -2.7520    4.4640 H     1065  INH1065     0.2600
     20  N4        26.0830    0.7400    6.3800 N.pl3 1065  INH1065    -0.3490
     21  C5        26.8460    1.8100    6.6480 C.3   1065  INH1065     0.1870
     22  H4        25.1920    0.5130    6.8200 H     1065  INH1065     0.1660
     23  O2        28.9120    4.8230    7.0170 O.3   1065  INH1065    -0.3880
     24  H7        29.6980    5.2930    6.7630 H     1065  INH1065     0.2100
     25  O3        31.2830    4.4230    8.0440 O.3   1065  INH1065    -0.3900
     26  H9        30.8790    5.1780    7.6330 H     1065  INH1065     0.2100
     27  S2        34.5730   -0.2060    5.6180 S.3   1065  INH1065    -0.0950
     28  C11       34.2390   -0.3100    7.4250 C.3   1065  INH1065     0.1200
     29  C12       34.4020   -1.7270    8.0470 C.3   1065  INH1065     0.1650
     30  O4        33.8400   -1.7490    9.3930 O.3   1065  INH1065    -0.3550
     31  C15       32.9900   -2.9210    9.4980 C.3   1065  INH1065     0.2620
     32  C14       32.4200   -3.1010    8.1030 C.3   1065  INH1065     0.1980
     33  C13       33.6560   -2.8130    7.2520 C.3   1065  INH1065     0.1800
     34  N6        31.9380   -2.6540   10.5180 N.pl3 1065  INH1065    -0.2970
     35  C16       30.7120   -2.1640   10.3030 C.3   1065  INH1065     0.1880
     36  N7        30.0650   -2.0640   11.4650 N.pl3 1065  INH1065    -0.3460
     37  C17       30.8900   -2.4790   12.4250 C.2   1065  INH1065     0.1220
     38  H7        29.1100   -1.7310   11.5940 H     1065  INH1065     0.1670
     39  C20       30.7880   -2.5970   13.8120 C.3   1065  INH1065     0.1310
     40  C18       32.0840   -2.8530   11.8210 C.2   1065  INH1065     0.1420
     41  N9        31.8430   -3.0780   14.4960 N.3   1065  INH1065    -0.3370
     42  C19       32.9710   -3.4270   13.8850 C.3   1065  INH1065     0.1830
     43  H9        31.7750   -3.1770   15.5090 H     1065  INH1065     0.1680
     44  N8        33.1020   -3.3250   12.5680 N.pl3 1065  INH1065    -0.3360
     45  H8        33.9750   -3.6040   12.1200 H     1065  INH1065     0.1680
     46  N10       29.6690   -2.2510   14.4510 N.3   1065  INH1065    -0.3830
     47  H23       29.4860   -1.2610   14.6700 H     1065  INH1065     0.1570
     48  H24       28.9890   -2.9730   14.7260 H     1065  INH1065     0.1570
     49  O6        31.9610   -4.4520    7.9310 O.3   1065  INH1065    -0.3880
     50  H19       32.1200   -4.7300    7.0360 H     1065  INH1065     0.2100
     51  O5        34.4810   -3.9860    7.1380 O.3   1065  INH1065    -0.3900
     52  H17       34.6440   -4.3430    8.0030 H     1065  INH1065     0.2100
@<TRIPOS>BOND
     1    16    14    1
     2    12    14    1
     3    12    10    1
     4    14    15    1
     5    13    10    1
     6    10     9    1
     7    19    17    1
     8    15    17    1
     9    15    11    1
    10     1    27    1
    11     1     2    1
    12    17    18    1
    13     9    11    2
    14     9     8    1
    15    11    20    1
    16     4     5    1
    17     4     3    1
    18    27    28    1
    19     5     8    1
    20     5     6    1
    21     8    21    1
    22     3     2    1
    23     3     7    1
    24    20    21    1
    25    20    22    1
    26    24    23    1
    27    23     6    1
    28    50    49    1
    29    51    33    1
    30    51    52    1
    31     6     7    1
    32    33    29    1
    33    33    32    1
    34    28    29    1
    35     7    25    1
    36    26    25    1
    37    49    32    1
    38    29    30    1
    39    32    31    1
    40    30    31    1
    41    31    34    1
    42    35    34    1
    43    35    36    1
    44    34    40    1
    45    36    38    1
    46    36    37    1
    47    40    37    2
    48    40    44    1
    49    45    44    1
    50    37    39    1
    51    44    42    1
    52    39    46    1
    53    39    41    1
    54    42    41    1
    55    46    47    1
    56    46    48    1
    57    41    43    1
