@<TRIPOS>MOLECULE
./ligand/2zlz_lig.pdb
 18 17 0 0 0
SMALL
GASTEIGER

@<TRIPOS>ATOM
      1  N1        11.6590   42.5600   16.1460 N.4   300  INH300      0.2289
      2  C1        12.8960   42.3350   16.9350 C.3   300  INH300      0.0790
      3  C2        12.6970   42.8310   18.3660 C.2   300  INH300      0.4026
      4  O1        13.1100   42.1180   19.3100 O.co2 300  INH300     -0.2400
      5  C3        14.0700   43.0480   16.2330 C.3   300  INH300      0.0111
      6  C4        15.0790   43.6700   17.1500 C.3   300  INH300      0.0548
      7  C5        16.2950   44.2600   16.4260 C.2   300  INH300      0.3562
      8  O2        17.1260   43.4890   15.8980 O.co2 300  INH300     -0.2464
      9  O3        16.4220   45.5060   16.4030 O.co2 300  INH300     -0.2464
     10  O4        12.0990   43.9140   18.5410 O.co2 300  INH300     -0.2400
     11  H1        10.9600   42.9890   16.7320 H     300  INH300      0.2002
     12  H2        13.1090   41.2560   16.9680 H     300  INH300      0.0970
     13  H3        13.6540   43.8420   15.5960 H     300  INH300      0.0331
     14  H4        14.5900   42.3100   15.6050 H     300  INH300      0.0331
     15  H5        15.4330   42.8990   17.8500 H     300  INH300      0.0381
     16  H6        14.5850   44.4770   17.7120 H     300  INH300      0.0381
     17  H7        11.3140   41.6770   15.8030 H     300  INH300      0.2002
     18  H8        11.8650   43.1730   15.3580 H     300  INH300      0.2002
@<TRIPOS>BOND
     1     1     2    1
     2     1    11    1
     3     1    17    1
     4     1    18    1
     5     2     3    1
     6     2    12    1
     7     2     5    1
     8     3     4   ar
     9     3    10   ar
    10     5     6    1
    11     5    14    1
    12     5    13    1
    13     6    15    1
    14     6    16    1
    15     6     7    1
    16     7     9   ar
    17     7     8   ar
