@<TRIPOS>MOLECULE
/tmp/ewbell/vina_2zlz_2zlz_lig/vina/vina1.pdbqt
 15 14 0 0 0
SMALL
GASTEIGER

@<TRIPOS>ATOM
      1  C1        14.4250   45.1790   17.0250 C.3   300  INH300      0.2800
      2  N1        13.5820   44.1500   17.6840 N.4   300  INH300     -0.0650
      3  H1        12.8890   43.8160   17.0330 H     300  INH300      0.2750
      4  H7        13.1220   44.5540   18.4850 H     300  INH300      0.2750
      5  H8        14.1680   43.3720   17.9860 H     300  INH300      0.2750
      6  C2        15.4000   44.5100   16.0580 C.2   300  INH300      0.1710
      7  O1        14.9610   43.6390   15.2710 O.2   300  INH300     -0.6480
      8  O4        16.6060   44.8340   16.1130 O.3   300  INH300     -0.7750
      9  H         17.0950   44.9560   15.3240 H     300  INH300      0.1670
     10  C3        15.1550   45.9940   18.1120 C.3   300  INH300      0.0540
     11  C4        14.6280   47.3790   18.3320 C.3   300  INH300      0.1120
     12  C5        15.3520   48.4570   17.5160 C.2   300  INH300      0.1390
     13  O3        15.4150   48.3130   16.2730 O.2   300  INH300     -0.6500
     14  O2        15.8410   49.4450   18.1060 O.3   300  INH300     -0.7760
     15  H         15.9910   49.4120   19.0290 H     300  INH300      0.1670
@<TRIPOS>BOND
     1     7     6    2
     2     9     8    1
     3     6     8    1
     4     6     1    1
     5    13    12    2
     6     1     2    1
     7     1    10    1
     8     3     2    1
     9    12    14    1
    10    12    11    1
    11     2     5    1
    12     2     4    1
    13    14    15    1
    14    10    11    1
