@<TRIPOS>MOLECULE
/tmp/ewbell/vina_2zlz_2zlz_lig/vina/vina3.pdbqt
 15 14 0 0 0
SMALL
GASTEIGER

@<TRIPOS>ATOM
      1  C1        14.4770   47.1550   18.3950 C.3   300  INH300      0.2800
      2  N1        13.0570   47.0510   17.9770 N.4   300  INH300     -0.0650
      3  H1        12.8810   47.6960   17.2220 H     300  INH300      0.2750
      4  H7        12.4590   47.2760   18.7570 H     300  INH300      0.2750
      5  H8        12.8630   46.1000   17.6640 H     300  INH300      0.2750
      6  C2        15.2090   48.1580   17.5050 C.2   300  INH300      0.1710
      7  O1        15.2710   47.9320   16.2740 O.2   300  INH300     -0.6480
      8  O4        15.7460   49.1490   18.0450 O.3   300  INH300     -0.7750
      9  H         16.6780   49.2460   18.0220 H     300  INH300      0.1670
     10  C3        15.1170   45.7530   18.3350 C.3   300  INH300      0.0540
     11  C4        14.3860   44.7530   17.4920 C.3   300  INH300      0.1120
     12  C5        15.1270   44.3640   16.2070 C.2   300  INH300      0.1390
     13  O3        14.7080   43.3780   15.5590 O.2   300  INH300     -0.6500
     14  O2        16.1090   45.0450   15.8380 O.3   300  INH300     -0.7760
     15  H         16.0190   45.6510   15.1300 H     300  INH300      0.1670
@<TRIPOS>BOND
     1    15    14    1
     2    13    12    2
     3    14    12    1
     4    12    11    1
     5     7     6    2
     6     3     2    1
     7    11    10    1
     8     6     8    1
     9     6     1    1
    10     5     2    1
    11     2     1    1
    12     2     4    1
    13     9     8    1
    14    10     1    1
