@<TRIPOS>MOLECULE
/tmp/ewbell/vina_2zlz_2zlz_lig/vina/vina4.pdbqt
 15 14 0 0 0
SMALL
GASTEIGER

@<TRIPOS>ATOM
      1  C1        12.6770   43.0600   17.8480 C.3   300  INH300      0.2800
      2  N1        12.0900   42.5510   16.5830 N.4   300  INH300     -0.0650
      3  H1        12.7640   41.9690   16.1100 H     300  INH300      0.2750
      4  H7        11.8420   43.3280   15.9910 H     300  INH300      0.2750
      5  H8        11.2560   42.0030   16.7910 H     300  INH300      0.2750
      6  C2        11.6690   43.9550   18.5650 C.2   300  INH300      0.1710
      7  O1        10.5620   43.4660   18.8940 O.2   300  INH300     -0.6480
      8  O4        11.9740   45.1490   18.7670 O.3   300  INH300     -0.7750
      9  H         11.3090   45.7720   18.9840 H     300  INH300      0.1670
     10  C3        13.9860   43.8080   17.5220 C.3   300  INH300      0.0540
     11  C4        14.7260   43.3060   16.3200 C.3   300  INH300      0.1120
     12  C5        15.9540   44.1480   15.9500 C.2   300  INH300      0.1390
     13  O3        15.8170   45.3900   15.8700 O.2   300  INH300     -0.6500
     14  O2        17.0500   43.5770   15.7560 O.3   300  INH300     -0.7760
     15  H         17.2580   42.7930   16.2240 H     300  INH300      0.1670
@<TRIPOS>BOND
     1    14    12    1
     2    14    15    1
     3    13    12    2
     4    12    11    1
     5     4     2    1
     6     3     2    1
     7    11    10    1
     8     2     5    1
     9     2     1    1
    10    10     1    1
    11     1     6    1
    12     6     8    1
    13     6     7    2
    14     8     9    1
