@<TRIPOS>MOLECULE
/tmp/ewbell/vina_2zlz_2zlz_lig/vina/vina5.pdbqt
 15 14 0 0 0
SMALL
GASTEIGER

@<TRIPOS>ATOM
      1  C1        13.5320   45.6590   19.3880 C.3   300  INH300      0.2800
      2  N1        13.0450   45.2710   18.0400 N.4   300  INH300     -0.0650
      3  H1        12.4250   44.4800   18.1220 H     300  INH300      0.2750
      4  H7        13.8300   45.0240   17.4580 H     300  INH300      0.2750
      5  H8        12.5450   46.0540   17.6210 H     300  INH300      0.2750
      6  C2        12.4450   46.4360   20.1290 C.2   300  INH300      0.1710
      7  O1        11.3750   46.6900   19.5280 O.2   300  INH300     -0.6480
      8  O4        12.6800   46.8180   21.2950 O.3   300  INH300     -0.7750
      9  H         12.7730   46.1900   21.9840 H     300  INH300      0.1670
     10  C3        14.8270   46.4820   19.2310 C.3   300  INH300      0.0540
     11  C4        14.6640   47.8060   18.5490 C.3   300  INH300      0.1120
     12  C5        15.3190   47.8760   17.1640 C.2   300  INH300      0.1390
     13  O3        15.0730   46.9590   16.3470 O.2   300  INH300     -0.6500
     14  O2        16.0590   48.8450   16.8870 O.3   300  INH300     -0.7760
     15  H         15.6890   49.6340   16.5440 H     300  INH300      0.1670
@<TRIPOS>BOND
     1    13    12    2
     2    15    14    1
     3    14    12    1
     4    12    11    1
     5     4     2    1
     6     5     2    1
     7     2     3    1
     8     2     1    1
     9    11    10    1
    10    10     1    1
    11     1     6    1
    12     7     6    2
    13     6     8    1
    14     8     9    1
