@<TRIPOS>MOLECULE
/tmp/ewbell/vina_2zlz_2zlz_lig/vina/vina2.pdbqt
 15 14 0 0 0
SMALL
GASTEIGER

@<TRIPOS>ATOM
      1  C1        13.1900   45.0010   18.4440 C.3   300  INH300      0.2800
      2  N1        13.9030   44.4340   17.2720 N.4   300  INH300     -0.0650
      3  H1        14.8660   44.7320   17.2880 H     300  INH300      0.2750
      4  H7        13.4650   44.7580   16.4230 H     300  INH300      0.2750
      5  H8        13.8610   43.4160   17.3080 H     300  INH300      0.2750
      6  C2        11.8010   44.3770   18.5590 C.2   300  INH300      0.1710
      7  O1        11.0680   44.7200   19.5160 O.2   300  INH300     -0.6480
      8  O4        11.4620   43.5220   17.7120 O.3   300  INH300     -0.7750
      9  H         10.9230   43.7690   16.9880 H     300  INH300      0.1670
     10  C3        13.1250   46.5350   18.2920 C.3   300  INH300      0.0540
     11  C4        14.3780   47.2670   18.6650 C.3   300  INH300      0.1120
     12  C5        15.1430   47.8410   17.4660 C.2   300  INH300      0.1390
     13  O3        15.0570   47.2430   16.3690 O.2   300  INH300     -0.6500
     14  O2        15.8110   48.8880   17.6120 O.3   300  INH300     -0.7760
     15  H         16.1200   49.3550   16.8610 H     300  INH300      0.1670
@<TRIPOS>BOND
     1    13    12    2
     2     4     2    1
     3    15    14    1
     4     9     8    1
     5     2     3    1
     6     2     5    1
     7     2     1    1
     8    12    14    1
     9    12    11    1
    10     8     6    1
    11    10     1    1
    12    10    11    1
    13     1     6    1
    14     6     7    2
