@<TRIPOS>MOLECULE
./ligand/2hzy_lig.pdb
 23 22 0 0 0
SMALL
GASTEIGER

@<TRIPOS>ATOM
      1  O1        54.4340   29.5330   47.8160 O.co2 844  INH844     -0.2464
      2  C1        55.0610   29.7370   48.9060 C.2   844  INH844      0.3565
      3  O2        54.5280   29.4830   49.9590 O.co2 844  INH844     -0.2464
      4  C2        56.4730   30.2600   49.1020 C.3   844  INH844      0.0579
      5  C3        57.2380   30.4650   48.0510 C.3   844  INH844      0.0374
      6  P1        58.8620   31.0580   48.1020 P.3   844  INH844      0.2445
      7  O3        59.7210   30.5200   49.2200 O.3   844  INH844     -0.1687
      8  O4        59.2300   30.8350   46.6950 O.2   844  INH844     -0.2877
      9  C4        58.7350   32.8540   48.3400 C.3   844  INH844      0.0857
     10  C5        59.8670   33.4640   47.5680 C.2   844  INH844      0.1534
     11  O5        60.9950   33.6070   48.0850 O.2   844  INH844     -0.2963
     12  C6        59.5660   33.9290   46.1460 C.3   844  INH844      0.1080
     13  C7        60.5810   33.3540   45.1470 C.2   844  INH844      0.3631
     14  O6        61.8110   33.3710   45.3720 O.co2 844  INH844     -0.2459
     15  O7        60.1060   32.9020   44.0820 O.co2 844  INH844     -0.2459
     16  H1        56.9970   29.5360   49.7430 H     844  INH844      0.0384
     17  H2        56.3880   31.2220   49.6290 H     844  INH844      0.0384
     18  H3        58.8240   33.1040   49.4080 H     844  INH844      0.0443
     19  H4        57.7720   33.2220   47.9570 H     844  INH844      0.0443
     20  H5        59.6110   35.0280   46.1110 H     844  INH844      0.0457
     21  H6        58.5570   33.5940   45.8650 H     844  INH844      0.0457
     22  H7        56.6860   31.1780   47.4220 H     844  INH844      0.0370
     23  H8        57.2970   29.4940   47.5380 H     844  INH844      0.0370
@<TRIPOS>BOND
     1    15    13   ar
     2    13    14   ar
     3    13    12    1
     4    21    12    1
     5    20    12    1
     6    12    10    1
     7     8     6    2
     8    22     5    1
     9    23     5    1
    10    10    11    2
    11    10     9    1
    12     1     2   ar
    13    19     9    1
    14     5     6    1
    15     5     4    1
    16     6     9    1
    17     6     7    1
    18     9    18    1
    19     2     4    1
    20     2     3   ar
    21     4    17    1
    22     4    16    1
