@<TRIPOS>MOLECULE
/tmp/ewbell/vina_2hzy_2hzy_lig/vina/vina2.pdbqt
 18 17 0 0 0
SMALL
GASTEIGER

@<TRIPOS>ATOM
      1  P1        58.7270   30.8900   48.1350 P.3   844  INH844      0.1060
      2  O4        59.5360   30.6250   46.9350 O.2   844  INH844     -0.6730
      3  C3        57.2750   30.0770   47.6620 C.3   844  INH844      0.1050
      4  C2        56.0760   30.3260   48.1460 C.3   844  INH844      0.1190
      5  C1        55.8260   30.1680   49.6360 C.2   844  INH844      0.1390
      6  O1        56.3170   30.8440   50.5980 O.2   844  INH844     -0.6500
      7  O2        55.0370   29.2850   49.8670 O.3   844  INH844     -0.7760
      8  H         55.1880   28.6960   50.5800 H     844  INH844      0.1670
      9  C4        58.3350   32.6640   48.1310 C.3   844  INH844      0.1720
     10  C5        59.5360   33.3610   47.5630 C.2   844  INH844      0.1450
     11  O5        60.5890   33.4700   48.2260 O.2   844  INH844     -0.2970
     12  C6        59.3980   33.9540   46.1640 C.3   844  INH844      0.1880
     13  C7        60.4260   33.3440   45.1990 C.2   844  INH844      0.1460
     14  O7        59.9660   32.8650   44.1390 O.2   844  INH844     -0.6500
     15  O6        61.6520   33.3610   45.4440 O.3   844  INH844     -0.7760
     16  H         62.0470   34.1290   45.8080 H     844  INH844      0.1670
     17  O3        59.2490   30.5520   49.5090 O.3   844  INH844     -0.3490
     18  H         58.5070   30.4870   50.1310 H     844  INH844      0.2170
@<TRIPOS>BOND
     1    14    13    2
     2    13    15    1
     3    13    12    1
     4    15    16    1
     5    12    10    1
     6     2     1    2
     7    10     9    1
     8    10    11    2
     9     3     1    1
    10     3     4    1
    11     9     1    1
    12     1    17    1
    13     4     5    1
    14    17    18    1
    15     5     7    1
    16     5     6    2
    17     7     8    1
