@<TRIPOS>MOLECULE
/tmp/ewbell/vina_2hzy_2hzy_lig/vina/vina1.pdbqt
 18 17 0 0 0
SMALL
GASTEIGER

@<TRIPOS>ATOM
      1  P1        58.8840   32.1320   48.3050 P.3   844  INH844      0.1060
      2  O4        58.4990   32.5700   49.6560 O.2   844  INH844     -0.6730
      3  C3        59.0110   33.6820   47.5470 C.3   844  INH844      0.1050
      4  C2        59.2490   33.8830   46.2690 C.3   844  INH844      0.1190
      5  C1        60.5280   33.3410   45.6540 C.2   844  INH844      0.1390
      6  O1        60.8650   32.1260   45.4660 O.2   844  INH844     -0.6500
      7  O2        61.2680   34.2280   45.3040 O.3   844  INH844     -0.7760
      8  H         62.0100   34.4540   45.8290 H     844  INH844      0.1670
      9  C4        57.4300   31.3300   47.5710 C.3   844  INH844      0.1720
     10  C5        57.1140   30.1500   48.4410 C.2   844  INH844      0.1450
     11  O5        58.0240   29.4780   48.9690 O.2   844  INH844     -0.2970
     12  C6        55.6410   29.7930   48.6170 C.3   844  INH844      0.1880
     13  C7        55.1740   30.0600   50.0570 C.2   844  INH844      0.1460
     14  O7        53.9470   30.2460   50.2100 O.2   844  INH844     -0.6500
     15  O6        55.9710   30.0530   51.0200 O.3   844  INH844     -0.7760
     16  H         56.4100   29.2600   51.2600 H     844  INH844      0.1670
     17  O3        60.0570   31.2050   48.0990 O.3   844  INH844     -0.3490
     18  H         60.8830   31.7080   48.1620 H     844  INH844      0.2170
@<TRIPOS>BOND
     1     7     5    1
     2     7     8    1
     3     6     5    2
     4     5     4    1
     5     4     3    1
     6     3     1    1
     7     9     1    1
     8     9    10    1
     9    17    18    1
    10    17     1    1
    11     1     2    2
    12    10    12    1
    13    10    11    2
    14    12    13    1
    15    13    14    2
    16    13    15    1
    17    15    16    1
