@<TRIPOS>MOLECULE
/tmp/ewbell/vina_2hzy_2hzy_lig/vina/vina4.pdbqt
 18 17 0 0 0
SMALL
GASTEIGER

@<TRIPOS>ATOM
      1  P1        52.1030   23.2710   57.9100 P.3   844  INH844      0.1060
      2  O4        51.8200   21.8660   57.5780 O.2   844  INH844     -0.6730
      3  C3        52.7300   23.0490   59.5060 C.3   844  INH844      0.1050
      4  C2        53.9580   23.3340   59.8840 C.3   844  INH844      0.1190
      5  C1        55.1270   22.6500   59.1960 C.2   844  INH844      0.1390
      6  O1        55.1860   21.4710   58.7170 O.2   844  INH844     -0.6500
      7  O2        56.0840   23.3800   59.1080 O.3   844  INH844     -0.7760
      8  H         56.8850   23.0600   58.7400 H     844  INH844      0.1670
      9  C4        50.5000   24.1030   58.1100 C.3   844  INH844      0.1720
     10  C5        50.7650   25.5720   57.9650 C.2   844  INH844      0.1450
     11  O5        50.8390   26.1030   56.8370 O.2   844  INH844     -0.2970
     12  C6        50.9720   26.3700   59.2480 C.3   844  INH844      0.1880
     13  C7        51.1040   27.8720   58.9530 C.2   844  INH844      0.1460
     14  O7        50.3450   28.6270   59.5990 O.2   844  INH844     -0.6500
     15  O6        51.9470   28.3130   58.1410 O.3   844  INH844     -0.7760
     16  H         51.6650   28.6980   57.3340 H     844  INH844      0.1670
     17  O3        52.9380   24.1290   56.9910 O.3   844  INH844     -0.3490
     18  H         53.7960   24.3080   57.4070 H     844  INH844      0.2170
@<TRIPOS>BOND
     1    11    10    2
     2    17    18    1
     3    17     1    1
     4    16    15    1
     5     2     1    2
     6     1     9    1
     7     1     3    1
     8    10     9    1
     9    10    12    1
    10    15    13    1
    11     6     5    2
    12     8     7    1
    13    13    12    1
    14    13    14    2
    15     7     5    1
    16     5     4    1
    17     3     4    1
