@<TRIPOS>MOLECULE
/tmp/ewbell/vina_2hzy_2hzy_lig/vina/vina5.pdbqt
 18 17 0 0 0
SMALL
GASTEIGER

@<TRIPOS>ATOM
      1  P1        59.1030   32.8460   48.2120 P.3   844  INH844      0.1060
      2  O4        58.9000   33.5630   49.4800 O.2   844  INH844     -0.6730
      3  C3        59.4250   34.2010   47.1870 C.3   844  INH844      0.1050
      4  C2        59.3210   34.2000   45.8750 C.3   844  INH844      0.1190
      5  C1        60.1590   33.2290   45.0610 C.2   844  INH844      0.1390
      6  O1        61.0620   32.4280   45.4670 O.2   844  INH844     -0.6500
      7  O2        59.8660   33.2570   43.8900 O.3   844  INH844     -0.7760
      8  H         58.9750   33.1310   43.6280 H     844  INH844      0.1670
      9  C4        57.4840   32.2010   47.7010 C.3   844  INH844      0.1720
     10  C5        57.3260   30.8700   48.3740 C.2   844  INH844      0.1450
     11  O5        56.8850   30.7880   49.5390 O.2   844  INH844     -0.2970
     12  C6        57.7610   29.6380   47.5860 C.3   844  INH844      0.1880
     13  C7        58.8720   28.8730   48.3200 C.2   844  INH844      0.1460
     14  O7        59.9350   28.7050   47.6840 O.2   844  INH844     -0.6500
     15  O6        58.7330   28.4760   49.4980 O.3   844  INH844     -0.7760
     16  H         59.3540   27.8800   49.8690 H     844  INH844      0.1670
     17  O3        60.0860   31.7050   48.1180 O.3   844  INH844     -0.3490
     18  H         60.8380   31.9700   47.5640 H     844  INH844      0.2170
@<TRIPOS>BOND
     1     8     7    1
     2     7     5    1
     3     5     6    2
     4     5     4    1
     5     4     3    1
     6     3     1    1
     7    18    17    1
     8    12    13    1
     9    12    10    1
    10    14    13    2
    11     9     1    1
    12     9    10    1
    13    17     1    1
    14     1     2    2
    15    13    15    1
    16    10    11    2
    17    15    16    1
