@<TRIPOS>MOLECULE
/tmp/ewbell/vina_2hzy_2hzy_lig/vina/vina3.pdbqt
 18 17 0 0 0
SMALL
GASTEIGER

@<TRIPOS>ATOM
      1  P1        58.4670   30.4060   48.1680 P.3   844  INH844      0.1060
      2  O4        59.8400   30.2360   48.6690 O.2   844  INH844     -0.6730
      3  C3        58.2720   32.0940   48.4910 C.3   844  INH844      0.1050
      4  C2        58.6420   33.0670   47.6860 C.3   844  INH844      0.1190
      5  C1        60.1020   33.1870   47.2840 C.2   844  INH844      0.1390
      6  O1        60.6550   32.8380   46.1900 O.2   844  INH844     -0.6500
      7  O2        60.7640   33.7060   48.1500 O.3   844  INH844     -0.7760
      8  H         60.4730   34.5030   48.5460 H     844  INH844      0.1670
      9  C4        57.3670   29.5410   49.3260 C.3   844  INH844      0.1720
     10  C5        55.9740   29.9990   49.0080 C.2   844  INH844      0.1450
     11  O5        55.6850   30.4420   47.8760 O.2   844  INH844     -0.2970
     12  C6        54.9470   29.9310   50.1340 C.3   844  INH844      0.1880
     13  C7        55.5650   30.3590   51.4750 C.2   844  INH844      0.1460
     14  O7        55.7850   31.5820   51.6110 O.2   844  INH844     -0.6500
     15  O6        55.7970   29.5350   52.3870 O.3   844  INH844     -0.7760
     16  H         56.0280   28.6520   52.1740 H     844  INH844      0.1670
     17  O3        58.0910   29.9570   46.7770 O.3   844  INH844     -0.3490
     18  H         58.7930   30.2070   46.1560 H     844  INH844      0.2170
@<TRIPOS>BOND
     1    18    17    1
     2     6     5    2
     3    17     1    1
     4     5     4    1
     5     5     7    1
     6     4     3    1
     7    11    10    2
     8     7     8    1
     9     1     3    1
    10     1     2    2
    11     1     9    1
    12    10     9    1
    13    10    12    1
    14    12    13    1
    15    13    14    2
    16    13    15    1
    17    16    15    1
