@<TRIPOS>MOLECULE
./ligand/2qi1_lig.pdb
 70 73 0 0 0
SMALL
GASTEIGER

@<TRIPOS>ATOM
      1  O1        17.1220   31.6020   14.3590 O.2   203  INH203     -0.1528
      2  S1        17.8400   32.7330   14.8730 S.O2  203  INH203      0.0613
      3  O2        18.2750   33.5550   13.7780 O.2   203  INH203     -0.1528
      4  C1        16.8800   33.6080   15.8550 C.ar  203  INH203      0.1089
      5  C2        15.8300   33.0160   16.5670 C.ar  203  INH203     -0.0351
      6  C3        15.0200   33.7810   17.4110 C.ar  203  INH203     -0.0565
      7  C4        15.2430   35.1470   17.5690 C.ar  203  INH203     -0.0198
      8  C5        16.2880   35.7550   16.8700 C.ar  203  INH203      0.1220
      9  O3        16.5500   37.1000   16.9910 O.3   203  INH203     -0.4951
     10  C6        16.0760   37.8990   18.0720 C.3   203  INH203      0.0788
     11  C7        17.0910   34.9810   16.0220 C.ar  203  INH203      0.0064
     12  N1        19.1920   32.2040   15.6080 N.3   203  INH203     -0.1693
     13  C8        19.9830   33.2230   16.3500 C.3   203  INH203      0.0518
     14  C9        21.4570   33.0460   15.9320 C.ar  203  INH203      0.0055
     15  S2        21.9400   32.8560   14.3260 S.2   203  INH203     -0.1003
     16  C10       23.5230   32.7310   14.8390 C.ar  203  INH203     -0.0240
     17  C11       23.7150   32.8560   16.1740 C.ar  203  INH203     -0.0544
     18  C12       22.4660   33.0190   16.8400 C.ar  203  INH203     -0.0502
     19  C13       19.0490   30.9450   16.3700 C.3   203  INH203      0.0486
     20  C14       20.0810   29.9190   15.8420 C.3   203  INH203      0.0881
     21  O4        20.0870   28.7830   16.7170 O.3   203  INH203     -0.3886
     22  C15       19.7790   29.5210   14.3860 C.3   203  INH203      0.0545
     23  C16       18.5780   28.5630   14.2320 C.3   203  INH203     -0.0067
     24  C17       18.3100   28.2510   12.7430 C.ar  203  INH203     -0.0455
     25  C18       18.8130   27.0880   12.1450 C.ar  203  INH203     -0.0585
     26  C19       18.5810   26.8050   10.7970 C.ar  203  INH203     -0.0615
     27  C20       17.8330   27.6900   10.0270 C.ar  203  INH203     -0.0617
     28  C21       17.3310   28.8480   10.6140 C.ar  203  INH203     -0.0615
     29  C22       17.5650   29.1240   11.9580 C.ar  203  INH203     -0.0585
     30  N2        20.9330   28.8070   13.8230 N.am  203  INH203     -0.3057
     31  C23       21.4610   29.1590   12.6240 C.2   203  INH203      0.2445
     32  O5        21.0620   30.0780   11.9200 O.2   203  INH203     -0.2702
     33  C24       22.6150   28.3490   12.0700 C.ar  203  INH203      0.0404
     34  C25       23.6150   27.8510   12.8980 C.ar  203  INH203     -0.0460
     35  C26       24.6330   27.0880   12.3510 C.ar  203  INH203     -0.0158
     36  C27       22.6330   28.0830   10.7100 C.ar  203  INH203     -0.0044
     37  C28       23.6530   27.3330   10.1590 C.ar  203  INH203      0.1589
     38  O6        23.6870   27.0820    8.8140 O.3   203  INH203     -0.5033
     39  C29       24.6460   26.8280   10.9860 C.ar  203  INH203      0.1583
     40  O7        25.6560   26.0970   10.4320 O.3   203  INH203     -0.5033
     41  H1        15.6430   31.9530   16.4630 H     203  INH203      0.0637
     42  H2        14.2080   33.3050   17.9490 H     203  INH203      0.0619
     43  H3        14.6120   35.7320   18.2280 H     203  INH203      0.0654
     44  H4        16.4190   38.9360   17.9400 H     203  INH203      0.0660
     45  H5        16.4670   37.5020   19.0200 H     203  INH203      0.0660
     46  H6        14.9760   37.8760   18.0900 H     203  INH203      0.0660
     47  H7        17.8990   35.4590   15.4800 H     203  INH203      0.0674
     48  H8        19.8770   33.0670   17.4340 H     203  INH203      0.0498
     49  H9        19.6360   34.2340   16.0890 H     203  INH203      0.0498
     50  H10       24.3460   32.5600   14.1470 H     203  INH203      0.0693
     51  H11       24.6850   32.8350   16.6680 H     203  INH203      0.0623
     52  H12       22.3390   33.1090   17.9180 H     203  INH203      0.0626
     53  H13       19.2320   31.1370   17.4380 H     203  INH203      0.0470
     54  H14       18.0320   30.5470   16.2380 H     203  INH203      0.0470
     55  H15       21.0790   30.3820   15.8660 H     203  INH203      0.0625
     56  H16       19.2310   28.3720   16.7070 H     203  INH203      0.2099
     57  H17       19.5850   30.4370   13.8090 H     203  INH203      0.0527
     58  H18       17.6840   29.0330   14.6680 H     203  INH203      0.0332
     59  H19       18.7950   27.6250   14.7630 H     203  INH203      0.0332
     60  H20       19.3940   26.3930   12.7410 H     203  INH203      0.0620
     61  H21       18.9820   25.9010   10.3530 H     203  INH203      0.0618
     62  H22       17.6430   27.4800    8.9810 H     203  INH203      0.0618
     63  H23       16.7510   29.5430   10.0170 H     203  INH203      0.0618
     64  H24       17.1620   30.0290   12.3980 H     203  INH203      0.0620
     65  H25       21.3370   28.0480   14.3330 H     203  INH203      0.1494
     66  H26       23.5980   28.0580   13.9620 H     203  INH203      0.0626
     67  H27       25.4180   26.6940   12.9860 H     203  INH203      0.0655
     68  H28       21.8420   28.4660   10.0750 H     203  INH203      0.0663
     69  H29       24.4510   26.5560    8.6090 H     203  INH203      0.2923
     70  H30       26.2560   25.8200   11.1140 H     203  INH203      0.2923
@<TRIPOS>BOND
     1     1     2    2
     2     2    12    1
     3     2     4    1
     4     2     3    2
     5     4    11   ar
     6     4     5   ar
     7     5    41    1
     8     5     6   ar
     9     6    42    1
    10     6     7   ar
    11     7    43    1
    12     7     8   ar
    13     8    11   ar
    14     8     9    1
    15     9    10    1
    16    10    46    1
    17    10    45    1
    18    10    44    1
    19    11    47    1
    20    12    19    1
    21    12    13    1
    22    13    49    1
    23    13    48    1
    24    13    14    1
    25    14    18   ar
    26    14    15   ar
    27    15    16   ar
    28    16    50    1
    29    16    17   ar
    30    17    51    1
    31    17    18   ar
    32    18    52    1
    33    19    54    1
    34    19    53    1
    35    19    20    1
    36    20    55    1
    37    20    22    1
    38    20    21    1
    39    21    56    1
    40    22    57    1
    41    22    30    1
    42    22    23    1
    43    23    59    1
    44    23    58    1
    45    23    24    1
    46    24    29   ar
    47    24    25   ar
    48    25    60    1
    49    25    26   ar
    50    26    61    1
    51    26    27   ar
    52    27    62    1
    53    27    28   ar
    54    28    63    1
    55    28    29   ar
    56    29    64    1
    57    30    65    1
    58    30    31   am
    59    31    33    1
    60    31    32    2
    61    33    36   ar
    62    33    34   ar
    63    34    66    1
    64    34    35   ar
    65    35    67    1
    66    35    39   ar
    67    36    37   ar
    68    36    68    1
    69    37    39   ar
    70    37    38    1
    71    38    69    1
    72    39    40    1
    73    40    70    1
