@<TRIPOS>MOLECULE
/tmp/ewbell/vina_2qi1_2qi1_lig/vina/vina4.pdbqt
 44 47 0 0 0
SMALL
GASTEIGER

@<TRIPOS>ATOM
      1  C14       19.1810   35.5340   18.4630 C.3   203  INH203      0.1550
      2  C13       18.1130   36.6510   18.5590 C.3   203  INH203      0.1410
      3  N1        18.7110   37.9260   18.1070 N.3   203  INH203     -0.1990
      4  S1        17.7310   38.8840   17.2300 S.O2  203  INH203      0.2440
      5  O1        16.8160   38.0580   16.4950 O.2   203  INH203     -0.2060
      6  O2        18.5790   39.5870   16.3080 O.2   203  INH203     -0.2060
      7  C1        16.9110   39.9600   18.1360 C.ar  203  INH203      0.0770
      8  C7        15.8840   39.5400   18.9890 C.ar  203  INH203      0.0610
      9  C5        15.1540   40.4460   19.7700 C.ar  203  INH203      0.0690
     10  C4        15.4570   41.8080   19.7040 C.ar  203  INH203      0.0370
     11  C3        16.4790   42.2400   18.8610 C.ar  203  INH203      0.0040
     12  C2        17.1970   41.3290   18.0810 C.ar  203  INH203      0.0250
     13  O3        14.1550   39.9670   20.5860 O.3   203  INH203     -0.3560
     14  C6        14.1950   40.0530   22.0080 C.3   203  INH203      0.2100
     15  C8        19.4970   38.5900   19.1810 C.3   203  INH203      0.1530
     16  C9        20.9310   38.7770   18.6450 C.ar  203  INH203     -0.0040
     17  C12       21.7930   37.7370   18.5140 C.ar  203  INH203      0.0160
     18  C11       23.0420   38.2010   18.0080 C.ar  203  INH203      0.0080
     19  C10       22.9840   39.5320   17.7650 C.ar  203  INH203      0.0500
     20  S2        21.5430   40.2740   18.1610 S.2   203  INH203     -0.1050
     21  C15       19.1590   34.8570   17.0820 C.3   203  INH203      0.1180
     22  N2        17.9720   35.2990   16.3370 N.am  203  INH203     -0.3490
     23  H25       17.6180   36.2230   16.4830 H     203  INH203      0.1630
     24  C23       17.3490   34.4790   15.4560 C.2   203  INH203      0.2520
     25  O5        16.3650   34.7750   14.7890 O.2   203  INH203     -0.2680
     26  C24       17.8660   33.0640   15.2850 C.ar  203  INH203      0.0340
     27  C27       18.2480   32.3670   16.4200 C.ar  203  INH203      0.0560
     28  C28       18.7430   31.0810   16.3140 C.ar  203  INH203      0.0990
     29  C29       18.8770   30.5070   15.0590 C.ar  203  INH203      0.0980
     30  C26       18.4980   31.2020   13.9160 C.ar  203  INH203      0.0400
     31  C25       17.9910   32.4860   14.0260 C.ar  203  INH203      0.0200
     32  O6        19.1050   30.3800   17.4320 O.3   203  INH203     -0.3580
     33  H29       18.5060   29.6530   17.5570 H     203  INH203      0.2170
     34  O7        19.3570   29.2330   14.9650 O.3   203  INH203     -0.3580
     35  H30       20.3040   29.2470   15.0210 H     203  INH203      0.2170
     36  C16       20.3690   35.2080   16.1890 C.3   203  INH203      0.0660
     37  C17       21.2510   33.9640   15.9420 C.ar  203  INH203     -0.0560
     38  C22       21.8400   33.2900   17.0070 C.ar  203  INH203      0.0070
     39  C21       22.6260   32.1630   16.7860 C.ar  203  INH203      0.0010
     40  C20       22.8450   31.6890   15.4950 C.ar  203  INH203      0.0000
     41  C19       22.2620   32.3500   14.4190 C.ar  203  INH203      0.0010
     42  C18       21.4730   33.4790   14.6470 C.ar  203  INH203      0.0070
     43  O4        18.9590   34.5950   19.5240 O.3   203  INH203     -0.3920
     44  H16       19.5100   34.8180   20.2640 H     203  INH203      0.2100
@<TRIPOS>BOND
     1    30    31   ar
     2    30    29   ar
     3    31    26   ar
     4    41    42   ar
     5    41    40   ar
     6    42    37   ar
     7    25    24    2
     8    34    35    1
     9    34    29    1
    10    29    28   ar
    11    26    24    1
    12    26    27   ar
    13    24    22   am
    14    40    39   ar
    15    37    36    1
    16    37    38   ar
    17    36    21    1
    18     6     4    2
    19    28    27   ar
    20    28    32    1
    21    22    23    1
    22    22    21    1
    23     5     4    2
    24    39    38   ar
    25    21     1    1
    26     4     3    1
    27     4     7    1
    28    32    33    1
    29    19    18   ar
    30    19    20   ar
    31    18    17   ar
    32    12     7   ar
    33    12    11   ar
    34     3     2    1
    35     3    15    1
    36     7     8   ar
    37    20    16   ar
    38     1     2    1
    39     1    43    1
    40    17    16   ar
    41    16    15    1
    42    11    10   ar
    43     8     9   ar
    44    43    44    1
    45    10     9   ar
    46     9    13    1
    47    13    14    1
