@<TRIPOS>MOLECULE
/tmp/ewbell/vina_2qi1_2qi1_lig/vina/vina1.pdbqt
 44 47 0 0 0
SMALL
GASTEIGER

@<TRIPOS>ATOM
      1  C14       19.8260   29.7730   15.1930 C.3   203  INH203      0.1550
      2  C13       18.7030   30.6460   15.8050 C.3   203  INH203      0.1410
      3  N1        18.9820   32.0660   15.5040 N.3   203  INH203     -0.1990
      4  S1        17.6920   32.9520   15.0590 S.O2  203  INH203      0.2440
      5  O1        16.7610   32.1010   14.3750 O.2   203  INH203     -0.2060
      6  O2        18.1850   33.9450   14.1450 O.2   203  INH203     -0.2060
      7  C1        16.9600   33.6900   16.3120 C.ar  203  INH203      0.0770
      8  C7        17.7080   34.4050   17.2550 C.ar  203  INH203      0.0610
      9  C5        17.1060   35.0380   18.3500 C.ar  203  INH203      0.0690
     10  C4        15.7210   34.9620   18.5100 C.ar  203  INH203      0.0370
     11  C3        14.9640   34.2550   17.5780 C.ar  203  INH203      0.0040
     12  C2        15.5740   33.6220   16.4930 C.ar  203  INH203      0.0250
     13  O3        17.8990   35.7230   19.2420 O.3   203  INH203     -0.3560
     14  C6        19.3190   35.6070   19.2800 C.3   203  INH203      0.2100
     15  C8        19.8950   32.6830   16.5030 C.3   203  INH203      0.1530
     16  C9        21.3120   32.6670   15.8940 C.ar  203  INH203     -0.0040
     17  C12       21.5400   32.9660   14.5900 C.ar  203  INH203      0.0160
     18  C11       22.9320   32.8620   14.3020 C.ar  203  INH203      0.0080
     19  C10       23.6190   32.5400   15.4240 C.ar  203  INH203      0.0500
     20  S2        22.6940   32.2970   16.7910 S.2   203  INH203     -0.1050
     21  C15       19.5610   29.4840   13.7040 C.3   203  INH203      0.1180
     22  N2        18.2100   29.9390   13.3490 N.am  203  INH203     -0.3490
     23  H25       17.7800   30.6650   13.8860 H     203  INH203      0.1630
     24  C23       17.5350   29.3940   12.3070 C.2   203  INH203      0.2520
     25  O5        16.4150   29.7260   11.9400 O.2   203  INH203     -0.2680
     26  C24       18.1790   28.2600   11.5350 C.ar  203  INH203      0.0340
     27  C27       18.1760   28.3270   10.1510 C.ar  203  INH203      0.0560
     28  C28       18.7340   27.3090    9.4020 C.ar  203  INH203      0.0990
     29  C29       19.2730   26.2080   10.0500 C.ar  203  INH203      0.0980
     30  C26       19.2780   26.1320   11.4380 C.ar  203  INH203      0.0400
     31  C25       18.7290   27.1610   12.1860 C.ar  203  INH203      0.0200
     32  O6        18.7510   27.3770    8.0350 O.3   203  INH203     -0.3580
     33  H29       18.1380   26.7460    7.6790 H     203  INH203      0.2170
     34  O7        19.8320   25.2120    9.3040 O.3   203  INH203     -0.3580
     35  H30       20.5920   24.8660    9.7560 H     203  INH203      0.2170
     36  C16       20.5170   30.2190   12.7400 C.3   203  INH203      0.0660
     37  C17       21.6950   29.3070   12.3330 C.ar  203  INH203     -0.0560
     38  C22       21.8640   28.9150   11.0090 C.ar  203  INH203      0.0070
     39  C21       22.9310   28.1010   10.6400 C.ar  203  INH203      0.0010
     40  C20       23.8500   27.6580   11.5870 C.ar  203  INH203      0.0000
     41  C19       23.6970   28.0410   12.9160 C.ar  203  INH203      0.0010
     42  C18       22.6250   28.8590   13.2800 C.ar  203  INH203      0.0070
     43  O4        19.9390   28.5670   15.9600 O.3   203  INH203     -0.3920
     44  H16       19.7290   27.8220   15.4100 H     203  INH203      0.2100
@<TRIPOS>BOND
     1    33    32    1
     2    32    28    1
     3    34    35    1
     4    34    29    1
     5    28    29   ar
     6    28    27   ar
     7    29    30   ar
     8    27    26   ar
     9    39    38   ar
    10    39    40   ar
    11    38    37   ar
    12    30    31   ar
    13    26    31   ar
    14    26    24    1
    15    40    41   ar
    16    25    24    2
    17    24    22   am
    18    37    36    1
    19    37    42   ar
    20    36    21    1
    21    41    42   ar
    22    22    21    1
    23    22    23    1
    24    21     1    1
    25     6     4    2
    26    18    17   ar
    27    18    19   ar
    28     5     4    2
    29    17    16   ar
    30     4     3    1
    31     4     7    1
    32     1     2    1
    33     1    43    1
    34    44    43    1
    35    19    20   ar
    36     3     2    1
    37     3    15    1
    38    16    15    1
    39    16    20   ar
    40     7    12   ar
    41     7     8   ar
    42    12    11   ar
    43     8     9   ar
    44    11    10   ar
    45     9    10   ar
    46     9    13    1
    47    13    14    1
