@<TRIPOS>MOLECULE
/tmp/ewbell/vina_2qi1_2qi1_lig/vina/vina5.pdbqt
 44 47 0 0 0
SMALL
GASTEIGER

@<TRIPOS>ATOM
      1  C14       19.4830   29.0160   11.6750 C.3   203  INH203      0.1550
      2  C13       19.1950   27.5420   12.0520 C.3   203  INH203      0.1410
      3  N1        19.7720   26.6600   11.0150 N.3   203  INH203     -0.1990
      4  S1        21.1420   25.8900   11.4370 S.O2  203  INH203      0.2440
      5  O1        20.8190   24.5380   11.7940 O.2   203  INH203     -0.2060
      6  O2        21.6460   26.5770   12.5940 O.2   203  INH203     -0.2060
      7  C1        22.2710   25.9070   10.2650 C.ar  203  INH203      0.0770
      8  C7        22.3260   24.8840    9.3120 C.ar  203  INH203      0.0610
      9  C5        23.2950   24.8660    8.3000 C.ar  203  INH203      0.0690
     10  C4        24.2340   25.8980    8.2320 C.ar  203  INH203      0.0370
     11  C3        24.1910   26.9240    9.1740 C.ar  203  INH203      0.0040
     12  C2        23.2230   26.9290   10.1820 C.ar  203  INH203      0.0250
     13  O3        23.2950   23.8290    7.3960 O.3   203  INH203     -0.3560
     14  C6        24.2290   22.7530    7.4360 C.3   203  INH203      0.2100
     15  C8        18.7350   25.8390   10.3350 C.3   203  INH203      0.1530
     16  C9        18.6820   26.3010    8.8640 C.ar  203  INH203     -0.0040
     17  C12       18.1370   27.4900    8.5000 C.ar  203  INH203      0.0160
     18  C11       18.2160   27.6490    7.0870 C.ar  203  INH203      0.0080
     19  C10       18.8510   26.5900    6.5300 C.ar  203  INH203      0.0500
     20  S2        19.3090   25.3860    7.5910 S.2   203  INH203     -0.1050
     21  C15       20.0990   29.7850   12.8580 C.3   203  INH203      0.1180
     22  N2        20.3030   28.8680   13.9870 N.am  203  INH203     -0.3490
     23  H25       20.8190   28.0230   13.8460 H     203  INH203      0.1630
     24  C23       19.8030   29.1450   15.2170 C.2   203  INH203      0.2520
     25  O5        19.9400   28.4400   16.2090 O.2   203  INH203     -0.2680
     26  C24       18.9780   30.4020   15.4020 C.ar  203  INH203      0.0340
     27  C27       19.3650   31.2980   16.3860 C.ar  203  INH203      0.0560
     28  C28       18.6340   32.4500   16.6070 C.ar  203  INH203      0.0990
     29  C29       17.4960   32.6860   15.8500 C.ar  203  INH203      0.0980
     30  C26       17.1000   31.7900   14.8630 C.ar  203  INH203      0.0400
     31  C25       17.8420   30.6430   14.6360 C.ar  203  INH203      0.0200
     32  O6        19.0200   33.3480   17.5640 O.3   203  INH203     -0.3580
     33  H29       19.9080   33.1550   17.8390 H     203  INH203      0.2170
     34  O7        16.7860   33.8310   16.0670 O.3   203  INH203     -0.3580
     35  H30       15.9470   33.7710   15.6270 H     203  INH203      0.2170
     36  C16       21.4850   30.3950   12.5580 C.3   203  INH203      0.0660
     37  C17       21.8960   31.3960   13.6600 C.ar  203  INH203     -0.0560
     38  C22       22.9000   31.0790   14.5690 C.ar  203  INH203      0.0070
     39  C21       23.2770   31.9850   15.5550 C.ar  203  INH203      0.0010
     40  C20       22.6540   33.2260   15.6590 C.ar  203  INH203      0.0000
     41  C19       21.6490   33.5610   14.7570 C.ar  203  INH203      0.0010
     42  C18       21.2750   32.6480   13.7680 C.ar  203  INH203      0.0070
     43  O4        18.2650   29.6190   11.2200 O.3   203  INH203     -0.3920
     44  H16       18.4530   30.4770   10.8580 H     203  INH203      0.2100
@<TRIPOS>BOND
     1    19    18   ar
     2    19    20   ar
     3    18    17   ar
     4    13    14    1
     5    13     9    1
     6    20    16   ar
     7    10     9   ar
     8    10    11   ar
     9     9     8   ar
    10    17    16   ar
    11    16    15    1
    12    11    12   ar
    13     8     7   ar
    14    12     7   ar
    15     7     4    1
    16    15     3    1
    17    44    43    1
    18     3     4    1
    19     3     2    1
    20    43     1    1
    21     4     5    2
    22     4     6    2
    23     1     2    1
    24     1    21    1
    25    36    21    1
    26    36    37    1
    27    21    22    1
    28    37    42   ar
    29    37    38   ar
    30    42    41   ar
    31    23    22    1
    32    22    24   am
    33    38    39   ar
    34    31    30   ar
    35    31    26   ar
    36    41    40   ar
    37    30    29   ar
    38    24    26    1
    39    24    25    2
    40    26    27   ar
    41    39    40   ar
    42    35    34    1
    43    29    34    1
    44    29    28   ar
    45    27    28   ar
    46    28    32    1
    47    32    33    1
