@<TRIPOS>MOLECULE
/tmp/ewbell/vina_2qi1_2qi1_lig/vina/vina2.pdbqt
 44 47 0 0 0
SMALL
GASTEIGER

@<TRIPOS>ATOM
      1  C14       19.4680   29.5460   12.0390 C.3   203  INH203      0.1550
      2  C13       19.2810   28.0680   12.4620 C.3   203  INH203      0.1410
      3  N1        20.2250   27.2270   11.6950 N.3   203  INH203     -0.1990
      4  S1        19.5700   25.9300   10.9650 S.O2  203  INH203      0.2440
      5  O1        18.3610   25.5750   11.6520 O.2   203  INH203     -0.2060
      6  O2        20.5240   24.8650   11.1080 O.2   203  INH203     -0.2060
      7  C1        19.2650   26.1720    9.3840 C.ar  203  INH203      0.0770
      8  C7        19.9230   25.4160    8.4070 C.ar  203  INH203      0.0610
      9  C5        19.6910   25.6120    7.0390 C.ar  203  INH203      0.0690
     10  C4        18.7740   26.5850    6.6320 C.ar  203  INH203      0.0370
     11  C3        18.1110   27.3430    7.5940 C.ar  203  INH203      0.0040
     12  C2        18.3540   27.1440    8.9560 C.ar  203  INH203      0.0250
     13  O3        20.3720   24.8370    6.1300 O.3   203  INH203     -0.3560
     14  C6        21.0170   25.3670    4.9740 C.3   203  INH203      0.2100
     15  C8        21.1670   28.0400   10.8800 C.3   203  INH203      0.1530
     16  C9        22.5950   27.5870   11.2480 C.ar  203  INH203     -0.0040
     17  C12       23.1980   27.9710   12.4020 C.ar  203  INH203      0.0160
     18  C11       24.5080   27.4150   12.4740 C.ar  203  INH203      0.0080
     19  C10       24.7460   26.6330   11.3940 C.ar  203  INH203      0.0500
     20  S2        23.5180   26.5690   10.2670 S.2   203  INH203     -0.1050
     21  C15       20.0600   30.3850   13.1850 C.3   203  INH203      0.1180
     22  N2        20.3600   29.5120   14.3280 N.am  203  INH203     -0.3490
     23  H25       20.9760   28.7350   14.2040 H     203  INH203      0.1630
     24  C23       19.8160   29.7420   15.5490 C.2   203  INH203      0.2520
     25  O5        20.0240   29.0700   16.5520 O.2   203  INH203     -0.2680
     26  C24       18.8430   30.8920   15.7090 C.ar  203  INH203      0.0340
     27  C27       19.1300   31.8640   16.6550 C.ar  203  INH203      0.0560
     28  C28       18.2650   32.9230   16.8520 C.ar  203  INH203      0.0990
     29  C29       17.0950   32.9890   16.1110 C.ar  203  INH203      0.0980
     30  C26       16.7990   32.0170   15.1620 C.ar  203  INH203      0.0400
     31  C25       17.6740   30.9630   14.9590 C.ar  203  INH203      0.0200
     32  O6        18.5520   33.8960   17.7710 O.3   203  INH203     -0.3580
     33  H29       18.8360   34.6820   17.3210 H     203  INH203      0.2170
     34  O7        16.2510   34.0440   16.3040 O.3   203  INH203     -0.3580
     35  H30       15.5560   34.0150   15.6580 H     203  INH203      0.2170
     36  C16       21.3920   31.0830   12.8310 C.3   203  INH203      0.0660
     37  C17       21.8840   31.9570   14.0050 C.ar  203  INH203     -0.0560
     38  C22       21.2350   33.1440   14.3260 C.ar  203  INH203      0.0070
     39  C21       21.6730   33.9270   15.3900 C.ar  203  INH203      0.0010
     40  C20       22.7720   33.5430   16.1530 C.ar  203  INH203      0.0000
     41  C19       23.4320   32.3570   15.8470 C.ar  203  INH203      0.0010
     42  C18       22.9880   31.5750   14.7790 C.ar  203  INH203      0.0070
     43  O4        18.2040   30.0590   11.5980 O.3   203  INH203     -0.3920
     44  H16       17.5500   29.9110   12.2710 H     203  INH203      0.2100
@<TRIPOS>BOND
     1    14    13    1
     2    13     9    1
     3    10     9   ar
     4    10    11   ar
     5     9     8   ar
     6    11    12   ar
     7     8     7   ar
     8    12     7   ar
     9     7     4    1
    10    20    16   ar
    11    20    19   ar
    12    15    16    1
    13    15     3    1
    14     4     6    2
    15     4     5    2
    16     4     3    1
    17    16    17   ar
    18    19    18   ar
    19    43     1    1
    20    43    44    1
    21     3     2    1
    22     1     2    1
    23     1    21    1
    24    17    18   ar
    25    36    21    1
    26    36    37    1
    27    21    22    1
    28    37    38   ar
    29    37    42   ar
    30    23    22    1
    31    38    39   ar
    32    22    24   am
    33    42    41   ar
    34    31    30   ar
    35    31    26   ar
    36    30    29   ar
    37    39    40   ar
    38    24    26    1
    39    24    25    2
    40    35    34    1
    41    26    27   ar
    42    41    40   ar
    43    29    34    1
    44    29    28   ar
    45    27    28   ar
    46    28    32    1
    47    33    32    1
