@<TRIPOS>MOLECULE
/tmp/ewbell/vina_2qi1_2qi1_lig/vina/vina3.pdbqt
 44 47 0 0 0
SMALL
GASTEIGER

@<TRIPOS>ATOM
      1  C14       19.3680   30.1940   15.3140 C.3   203  INH203      0.1550
      2  C13       20.6400   29.4690   14.8120 C.3   203  INH203      0.1410
      3  N1        20.4980   29.1990   13.3650 N.3   203  INH203     -0.1990
      4  S1        21.8520   29.3930   12.4830 S.O2  203  INH203      0.2440
      5  O1        22.8250   30.0870   13.2780 O.2   203  INH203     -0.2060
      6  O2        21.4850   30.2140   11.3620 O.2   203  INH203     -0.2060
      7  C1        22.4690   27.9870   11.9420 C.ar  203  INH203      0.0770
      8  C7        21.7530   27.1940   11.0380 C.ar  203  INH203      0.0610
      9  C5        22.2540   25.9740   10.5660 C.ar  203  INH203      0.0690
     10  C4        23.5050   25.5320   11.0020 C.ar  203  INH203      0.0370
     11  C3        24.2300   26.3120   11.9010 C.ar  203  INH203      0.0040
     12  C2        23.7180   27.5250   12.3700 C.ar  203  INH203      0.0250
     13  O3        21.4980   25.2420    9.6800 O.3   203  INH203     -0.3560
     14  C6        21.9630   24.8430    8.3930 C.3   203  INH203      0.2100
     15  C8        19.7050   27.9700   13.0980 C.3   203  INH203      0.1530
     16  C9        18.5980   28.3530   12.0940 C.ar  203  INH203     -0.0040
     17  C12       17.6170   29.2380   12.4050 C.ar  203  INH203      0.0160
     18  C11       16.7320   29.3920   11.3000 C.ar  203  INH203      0.0080
     19  C10       17.1560   28.6450   10.2520 C.ar  203  INH203      0.0500
     20  S2        18.5180   27.7240   10.5300 S.2   203  INH203     -0.1050
     21  C15       19.3600   31.6720   14.8830 C.3   203  INH203      0.1180
     22  N2        20.5330   31.9440   14.0410 N.am  203  INH203     -0.3490
     23  H25       20.6470   31.4440   13.1830 H     203  INH203      0.1630
     24  C23       21.4630   32.8600   14.4060 C.2   203  INH203      0.2520
     25  O5        22.4590   33.1520   13.7560 O.2   203  INH203     -0.2680
     26  C24       21.3030   33.5720   15.7350 C.ar  203  INH203      0.0340
     27  C27       20.4130   34.6320   15.8050 C.ar  203  INH203      0.0560
     28  C28       20.2460   35.3250   16.9890 C.ar  203  INH203      0.0990
     29  C29       20.9970   34.9640   18.0970 C.ar  203  INH203      0.0980
     30  C26       21.8940   33.9040   18.0340 C.ar  203  INH203      0.0400
     31  C25       22.0500   33.2030   16.8490 C.ar  203  INH203      0.0200
     32  O6        19.3560   36.3600   17.0700 O.3   203  INH203     -0.3580
     33  H29       18.8540   36.4110   16.2660 H     203  INH203      0.2170
     34  O7        20.8180   35.6460   19.2650 O.3   203  INH203     -0.3580
     35  H30       21.6330   35.6590   19.7520 H     203  INH203      0.2170
     36  C16       18.1330   32.0740   14.0350 C.3   203  INH203      0.0660
     37  C17       17.1670   32.9600   14.8510 C.ar  203  INH203     -0.0560
     38  C22       16.3360   32.4020   15.8160 C.ar  203  INH203      0.0070
     39  C21       15.4720   33.2010   16.5580 C.ar  203  INH203      0.0010
     40  C20       15.4160   34.5760   16.3480 C.ar  203  INH203      0.0000
     41  C19       16.2410   35.1520   15.3870 C.ar  203  INH203      0.0010
     42  C18       17.1070   34.3450   14.6460 C.ar  203  INH203      0.0070
     43  O4        19.2910   30.0520   16.7390 O.3   203  INH203     -0.3920
     44  H16       18.3850   30.1200   17.0150 H     203  INH203      0.2100
@<TRIPOS>BOND
     1    14    13    1
     2    13     9    1
     3    19    20   ar
     4    19    18   ar
     5    20    16   ar
     6     9    10   ar
     7     9     8   ar
     8    10    11   ar
     9     8     7   ar
    10    18    17   ar
    11     6     4    2
    12    11    12   ar
    13     7    12   ar
    14     7     4    1
    15    16    17   ar
    16    16    15    1
    17     4     5    2
    18     4     3    1
    19    15     3    1
    20    23    22    1
    21     3     2    1
    22    25    24    2
    23    36    37    1
    24    36    21    1
    25    22    24   am
    26    22    21    1
    27    24    26    1
    28    42    37   ar
    29    42    41   ar
    30     2     1    1
    31    37    38   ar
    32    21     1    1
    33     1    43    1
    34    41    40   ar
    35    26    27   ar
    36    26    31   ar
    37    27    28   ar
    38    38    39   ar
    39    33    32    1
    40    40    39   ar
    41    43    44    1
    42    31    30   ar
    43    28    32    1
    44    28    29   ar
    45    30    29   ar
    46    29    34    1
    47    34    35    1
