@<TRIPOS>MOLECULE
/tmp/ewbell/vina_2q6m_2q6m_lig/vina/vina3.pdbqt
 25 27 0 0 0
SMALL
GASTEIGER

@<TRIPOS>ATOM
      1  C5        18.8780   56.8830    5.7480 C.ar  206  INH206      0.0350
      2  C6        19.5270   57.6520    6.7930 C.ar  206  INH206      0.0440
      3  C7        18.7560   58.7090    7.4370 C.ar  206  INH206      0.0040
      4  C8        19.3440   59.5230    8.4160 C.ar  206  INH206     -0.0080
      5  C9        20.6640   59.4340    8.8370 C.ar  206  INH206      0.0130
      6  C10       21.1410   60.2620    9.7980 C.ar  206  INH206      0.0010
      7  C11       20.3670   61.2140   10.4060 C.ar  206  INH206      0.0010
      8  C12       19.0440   61.3330   10.0000 C.ar  206  INH206      0.0180
      9  C13       18.5650   60.5040    9.0010 C.ar  206  INH206      0.0430
     10  C14       17.2270   60.7450    8.5350 C.ar  206  INH206      0.2570
     11  O2        16.4810   61.6590    8.9360 O.2   206  INH206     -0.2670
     12  N3        16.6970   59.9560    7.5950 N.ar  206  INH206     -0.3220
     13  C15       17.4530   58.9140    7.0250 C.ar  206  INH206      0.0460
     14  C16       16.8470   58.1330    6.0250 C.ar  206  INH206      0.0330
     15  C17       17.5760   57.1300    5.3880 C.ar  206  INH206      0.0320
     16  H16       15.7550   60.1060    7.2940 H     206  INH206      0.1690
     17  N2        19.6700   55.9010    5.1540 N.am  206  INH206     -0.3260
     18  C4        20.2350   55.8920    3.9600 C.2   206  INH206      0.2480
     19  O1        20.9350   54.9960    3.4970 O.2   206  INH206     -0.2710
     20  H10       19.8330   55.0870    5.7110 H     206  INH206      0.1690
     21  C3        19.8830   57.0400    3.0470 C.3   206  INH206      0.3360
     22  N1        21.1270   57.8130    2.7830 N.4   206  INH206     -0.0700
     23  C1        21.1550   59.1360    3.4720 C.3   206  INH206      0.2690
     24  H4        21.9110   57.2720    3.1150 H     206  INH206      0.2790
     25  C2        21.2600   58.0040    1.3100 C.3   206  INH206      0.2690
@<TRIPOS>BOND
     1    25    22    1
     2    22    21    1
     3    22    24    1
     4    22    23    1
     5    21    18    1
     6    19    18    2
     7    18    17   am
     8    17    20    1
     9    17     1    1
    10    15     1   ar
    11    15    14   ar
    12     1     2   ar
    13    14    13   ar
    14     2     3   ar
    15    13     3   ar
    16    13    12   ar
    17    16    12    1
    18     3     4   ar
    19    12    10   ar
    20     4     5   ar
    21     4     9   ar
    22    10    11    2
    23    10     9   ar
    24     5     6   ar
    25     9     8   ar
    26     6     7   ar
    27     8     7   ar
