@<TRIPOS>MOLECULE
/tmp/ewbell/vina_2q6m_2q6m_lig/vina/vina4.pdbqt
 25 27 0 0 0
SMALL
GASTEIGER

@<TRIPOS>ATOM
      1  C5        18.4760   57.4640    5.4870 C.ar  206  INH206      0.0350
      2  C6        19.1930   58.1050    6.5730 C.ar  206  INH206      0.0440
      3  C7        18.4650   59.0610    7.3980 C.ar  206  INH206      0.0040
      4  C8        19.1160   59.7530    8.4300 C.ar  206  INH206     -0.0080
      5  C9        20.4640   59.6290    8.7430 C.ar  206  INH206      0.0130
      6  C10       21.0030   60.3360    9.7660 C.ar  206  INH206      0.0010
      7  C11       20.2700   61.1930   10.5420 C.ar  206  INH206      0.0010
      8  C12       18.9210   61.3450   10.2470 C.ar  206  INH206      0.0180
      9  C13       18.3760   60.6430    9.1870 C.ar  206  INH206      0.0430
     10  C14       17.0070   60.9230    8.8480 C.ar  206  INH206      0.2570
     11  O2        16.2880   61.7680    9.4130 O.2   206  INH206     -0.2670
     12  N3        16.4160   60.2510    7.8550 N.ar  206  INH206     -0.3220
     13  C15       17.1350   59.2990    7.1070 C.ar  206  INH206      0.0460
     14  C16       16.4630   58.6420    6.0600 C.ar  206  INH206      0.0330
     15  C17       17.1500   57.7380    5.2520 C.ar  206  INH206      0.0320
     16  H16       15.4550   60.4250    7.6420 H     206  INH206      0.1690
     17  N2        19.2280   56.5770    4.7200 N.am  206  INH206     -0.3260
     18  C4        19.5220   55.3100    4.9520 C.2   206  INH206      0.2480
     19  O1        20.1830   54.5750    4.2260 O.2   206  INH206     -0.2710
     20  H10       19.5980   56.9530    3.8700 H     206  INH206      0.1690
     21  C3        19.1000   54.7640    6.2940 C.3   206  INH206      0.3360
     22  N1        18.9380   53.2910    6.1580 N.4   206  INH206     -0.0700
     23  C1        17.5110   52.8560    6.1320 C.3   206  INH206      0.2690
     24  H4        19.3660   53.0050    5.2910 H     206  INH206      0.2790
     25  C2        19.6500   52.6310    7.2900 C.3   206  INH206      0.2690
@<TRIPOS>BOND
     1    20    17    1
     2    19    18    2
     3    17    18   am
     4    17     1    1
     5    18    21    1
     6    15     1   ar
     7    15    14   ar
     8    24    22    1
     9     1     2   ar
    10    14    13   ar
    11    23    22    1
    12    22    21    1
    13    22    25    1
    14     2     3   ar
    15    13     3   ar
    16    13    12   ar
    17     3     4   ar
    18    16    12    1
    19    12    10   ar
    20     4     5   ar
    21     4     9   ar
    22     5     6   ar
    23    10     9   ar
    24    10    11    2
    25     9     8   ar
    26     6     7   ar
    27     8     7   ar
