@<TRIPOS>MOLECULE
/tmp/ewbell/vina_2q6m_2q6m_lig/vina/vina1.pdbqt
 25 27 0 0 0
SMALL
GASTEIGER

@<TRIPOS>ATOM
      1  C5        18.2910   56.9410    5.8090 C.ar  206  INH206      0.0350
      2  C6        17.9360   58.1410    6.5430 C.ar  206  INH206      0.0440
      3  C7        18.9060   58.6690    7.4950 C.ar  206  INH206      0.0040
      4  C8        18.6010   59.7950    8.2730 C.ar  206  INH206     -0.0080
      5  C9        17.3920   60.4770    8.2440 C.ar  206  INH206      0.0130
      6  C10       17.1920   61.5630    9.0310 C.ar  206  INH206      0.0010
      7  C11       18.1490   62.0490    9.8800 C.ar  206  INH206      0.0010
      8  C12       19.3670   61.3820    9.9380 C.ar  206  INH206      0.0180
      9  C13       19.5610   60.2590    9.1530 C.ar  206  INH206      0.0430
     10  C14       20.7910   59.5360    9.3360 C.ar  206  INH206      0.2570
     11  O2        21.6750   59.8240   10.1640 O.2   206  INH206     -0.2670
     12  N3        21.0500   58.4620    8.5820 N.ar  206  INH206     -0.3220
     13  C15       20.1100   58.0050    7.6390 C.ar  206  INH206      0.0460
     14  C16       20.4320   56.8570    6.8940 C.ar  206  INH206      0.0330
     15  C17       19.5080   56.3310    5.9930 C.ar  206  INH206      0.0320
     16  H16       21.9190   57.9800    8.6890 H     206  INH206      0.1690
     17  N2        17.3170   56.4710    4.9310 N.am  206  INH206     -0.3260
     18  C4        16.9810   56.9190    3.7350 C.2   206  INH206      0.2480
     19  O1        16.1160   56.4500    3.0010 O.2   206  INH206     -0.2710
     20  H10       16.7960   55.6800    5.2530 H     206  INH206      0.1690
     21  C3        17.6490   58.1970    3.2910 C.3   206  INH206      0.3360
     22  N1        18.6650   57.8490    2.2610 N.4   206  INH206     -0.0700
     23  C1        20.0630   58.1480    2.6880 C.3   206  INH206      0.2690
     24  H4        18.6010   56.8590    2.0760 H     206  INH206      0.2790
     25  C2        18.3450   58.5960    1.0110 C.3   206  INH206      0.2690
@<TRIPOS>BOND
     1    25    22    1
     2    24    22    1
     3    22    23    1
     4    22    21    1
     5    19    18    2
     6    21    18    1
     7    18    17   am
     8    17    20    1
     9    17     1    1
    10     1    15   ar
    11     1     2   ar
    12    15    14   ar
    13     2     3   ar
    14    14    13   ar
    15     3    13   ar
    16     3     4   ar
    17    13    12   ar
    18     5     4   ar
    19     5     6   ar
    20     4     9   ar
    21    12    16    1
    22    12    10   ar
    23     6     7   ar
    24     9    10   ar
    25     9     8   ar
    26    10    11    2
    27     7     8   ar
