@<TRIPOS>MOLECULE
/tmp/ewbell/vina_2q6m_2q6m_lig/vina/vina2.pdbqt
 25 27 0 0 0
SMALL
GASTEIGER

@<TRIPOS>ATOM
      1  C5        20.0760   56.7120    6.1130 C.ar  206  INH206      0.0350
      2  C6        20.3870   57.6470    7.1770 C.ar  206  INH206      0.0440
      3  C7        19.3440   58.5800    7.5890 C.ar  206  INH206      0.0040
      4  C8        19.6000   59.5440    8.5750 C.ar  206  INH206     -0.0080
      5  C9        20.8200   59.7240    9.2130 C.ar  206  INH206      0.0130
      6  C10       20.9690   60.6810   10.1620 C.ar  206  INH206      0.0010
      7  C11       19.9480   61.5080   10.5470 C.ar  206  INH206      0.0010
      8  C12       18.7180   61.3580    9.9200 C.ar  206  INH206      0.0180
      9  C13       18.5730   60.3980    8.9340 C.ar  206  INH206      0.0430
     10  C14       17.3180   60.3600    8.2340 C.ar  206  INH206      0.2570
     11  O2        16.3680   61.1420    8.4240 O.2   206  INH206     -0.2670
     12  N3        17.1070   59.4330    7.2940 N.ar  206  INH206     -0.3220
     13  C15       18.1200   58.5170    6.9520 C.ar  206  INH206      0.0460
     14  C16       17.8440   57.5800    5.9400 C.ar  206  INH206      0.0330
     15  C17       18.8360   56.6930    5.5230 C.ar  206  INH206      0.0320
     16  H16       16.2220   59.3890    6.8300 H     206  INH206      0.1690
     17  N2        21.1170   55.8600    5.7470 N.am  206  INH206     -0.3260
     18  C4        21.4340   54.6710    6.2270 C.2   206  INH206      0.2480
     19  O1        22.3620   53.9620    5.8500 O.2   206  INH206     -0.2710
     20  H10       21.7080   56.1980    5.0150 H     206  INH206      0.1690
     21  C3        20.6480   54.2070    7.4280 C.3   206  INH206      0.3360
     22  N1        20.0580   52.8800    7.1020 N.4   206  INH206     -0.0700
     23  C1        18.9370   52.9600    6.1200 C.3   206  INH206      0.2690
     24  H4        20.7810   52.3020    6.7030 H     206  INH206      0.2790
     25  C2        19.5800   52.2520    8.3680 C.3   206  INH206      0.2690
@<TRIPOS>BOND
     1    20    17    1
     2    15    14   ar
     3    15     1   ar
     4    17     1    1
     5    17    18   am
     6    19    18    2
     7    14    13   ar
     8     1     2   ar
     9    23    22    1
    10    18    21    1
    11    24    22    1
    12    16    12    1
    13    13    12   ar
    14    13     3   ar
    15    22    21    1
    16    22    25    1
    17     2     3   ar
    18    12    10   ar
    19     3     4   ar
    20    10    11    2
    21    10     9   ar
    22     4     9   ar
    23     4     5   ar
    24     9     8   ar
    25     5     6   ar
    26     8     7   ar
    27     6     7   ar
