@<TRIPOS>MOLECULE
/tmp/ewbell/vina_2q6m_2q6m_lig/vina/vina5.pdbqt
 25 27 0 0 0
SMALL
GASTEIGER

@<TRIPOS>ATOM
      1  C5        16.1920   58.0140    5.5760 C.ar  206  INH206      0.0350
      2  C6        17.4320   58.1280    6.3200 C.ar  206  INH206      0.0440
      3  C7        17.5320   59.1900    7.3150 C.ar  206  INH206      0.0040
      4  C8        18.7230   59.3860    8.0290 C.ar  206  INH206     -0.0080
      5  C9        19.8860   58.6470    7.8550 C.ar  206  INH206      0.0130
      6  C10       20.9880   58.9060    8.6010 C.ar  206  INH206      0.0010
      7  C11       21.0220   59.8870    9.5550 C.ar  206  INH206      0.0010
      8  C12       19.8770   60.6500    9.7450 C.ar  206  INH206      0.0180
      9  C13       18.7610   60.4010    8.9670 C.ar  206  INH206      0.0430
     10  C14       17.6430   61.2930    9.1190 C.ar  206  INH206      0.2570
     11  O2        17.6150   62.2850    9.8710 O.2   206  INH206     -0.2670
     12  N3        16.5230   61.0830    8.4190 N.ar  206  INH206     -0.3220
     13  C15       16.4430   60.0200    7.4990 C.ar  206  INH206      0.0460
     14  C16       15.2460   59.8660    6.7770 C.ar  206  INH206      0.0330
     15  C17       15.1410   58.8670    5.8100 C.ar  206  INH206      0.0320
     16  H16       15.7360   61.6850    8.5500 H     206  INH206      0.1690
     17  N2        16.1620   56.9960    4.6240 N.am  206  INH206     -0.3260
     18  C4        16.3690   57.0620    3.3210 C.2   206  INH206      0.2480
     19  O1        16.3400   56.1200    2.5340 O.2   206  INH206     -0.2710
     20  H10       15.9530   56.0840    4.9780 H     206  INH206      0.1690
     21  C3        16.5390   58.4450    2.7430 C.3   206  INH206      0.3360
     22  N1        15.9490   58.4460    1.3770 N.4   206  INH206     -0.0700
     23  C1        16.8110   59.1240    0.3650 C.3   206  INH206      0.2690
     24  H4        15.8230   57.4880    1.0860 H     206  INH206      0.2790
     25  C2        14.6170   59.1130    1.4380 C.3   206  INH206      0.2690
@<TRIPOS>BOND
     1    23    22    1
     2    24    22    1
     3    22    25    1
     4    22    21    1
     5    19    18    2
     6    21    18    1
     7    18    17   am
     8    17    20    1
     9    17     1    1
    10     1    15   ar
    11     1     2   ar
    12    15    14   ar
    13     2     3   ar
    14    14    13   ar
    15     3    13   ar
    16     3     4   ar
    17    13    12   ar
    18     5     4   ar
    19     5     6   ar
    20     4     9   ar
    21    12    16    1
    22    12    10   ar
    23     6     7   ar
    24     9    10   ar
    25     9     8   ar
    26    10    11    2
    27     7     8   ar
