@<TRIPOS>MOLECULE
./ligand/10gs_lig.pdb
 59 60 0 0 0
SMALL
GASTEIGER

@<TRIPOS>ATOM
      1  N1        15.0880   10.7980   23.5470 N.4   421  INH421      0.2289
      2  C1        15.0100    9.9870   24.7920 C.3   421  INH421      0.0790
      3  C2        16.1150    8.9240   24.8300 C.2   421  INH421      0.4026
      4  O1        16.5200    8.5150   25.9400 O.co2 421  INH421     -0.2400
      5  C3        13.6350    9.3270   24.9080 C.3   421  INH421      0.0091
      6  C4        13.3940    8.7080   26.2710 C.3   421  INH421      0.0296
      7  O2        16.5780    8.5240   23.7440 O.co2 421  INH421     -0.2400
      8  H1        14.3520   11.4870   23.5480 H     421  INH421      0.2002
      9  H2        14.9820   10.1950   22.7460 H     421  INH421      0.2002
     10  H3        15.9820   11.2610   23.5030 H     421  INH421      0.2002
     11  H4        15.1480   10.6590   25.6520 H     421  INH421      0.0970
     12  H5        13.5580    8.5380   24.1450 H     421  INH421      0.0330
     13  H6        12.8630   10.0890   24.7260 H     421  INH421      0.0330
     14  H7        13.4680    9.5000   27.0310 H     421  INH421      0.0360
     15  H8        14.1720    7.9520   26.4520 H     421  INH421      0.0360
     16  N2        11.7260    7.6420   27.6280 N.am  421  INH421     -0.3033
     17  C5        10.4720    6.9670   27.9340 C.3   421  INH421      0.1083
     18  C6         9.8340    7.5500   29.1800 C.2   421  INH421      0.2350
     19  O3        10.5220    8.0230   30.0840 O.2   421  INH421     -0.2737
     20  C7        10.7260    5.4840   28.2060 C.3   421  INH421      0.0210
     21  S1        11.2910    4.5240   26.8100 S.3   421  INH421     -0.1538
     22  H9        12.3740    7.8080   28.3710 H     421  INH421      0.1495
     23  H10        9.7860    7.0780   27.0810 H     421  INH421      0.0603
     24  H11        9.7850    5.0400   28.5620 H     421  INH421      0.0399
     25  H12       11.4880    5.4110   28.9960 H     421  INH421      0.0399
     26  O4        11.2930    7.9360   25.4350 O.2   421  INH421     -0.2758
     27  C8        12.0450    8.0460   26.4020 C.2   421  INH421      0.2138
     28  C9         9.7290    3.8040   26.2620 C.3   421  INH421      0.0189
     29  C10        8.9300    3.1710   27.3700 C.ar  421  INH421     -0.0376
     30  C11        7.6400    3.6140   27.6500 C.ar  421  INH421     -0.0578
     31  C12        9.4640    2.1350   28.1330 C.ar  421  INH421     -0.0578
     32  C13        6.8930    3.0370   28.6730 C.ar  421  INH421     -0.0615
     33  C14        8.7230    1.5500   29.1610 C.ar  421  INH421     -0.0615
     34  C15        7.4370    2.0010   29.4300 C.ar  421  INH421     -0.0617
     35  H13        9.9480    3.0330   25.5080 H     421  INH421      0.0425
     36  H14        9.1210    4.6000   25.8070 H     421  INH421      0.0425
     37  H15        7.2120    4.4190   27.0640 H     421  INH421      0.0621
     38  H16       10.4670    1.7790   27.9260 H     421  INH421      0.0621
     39  H17        5.8900    3.3930   28.8800 H     421  INH421      0.0618
     40  H18        9.1500    0.7450   29.7480 H     421  INH421      0.0618
     41  H19        6.8580    1.5480   30.2270 H     421  INH421      0.0618
     42  N3         8.5120    7.4680   29.2290 N.am  421  INH421     -0.2971
     43  C16        7.7400    7.9330   30.3660 C.3   421  INH421      0.1504
     44  C17        7.4520    9.4330   30.3540 C.2   421  INH421      0.3803
     45  O5         7.1160    9.9570   31.4330 O.co2 421  INH421     -0.2439
     46  O6         7.5690   10.0680   29.2840 O.co2 421  INH421     -0.2439
     47  H20        8.0270    7.0690   28.4510 H     421  INH421      0.1499
     48  H21        8.3980    7.7870   31.2360 H     421  INH421      0.0667
     49  C18        5.3300    7.3150   30.0270 C.ar  421  INH421     -0.0563
     50  C19        4.2500    6.4590   30.2200 C.ar  421  INH421     -0.0614
     51  C20        5.6110    5.0810   31.6400 C.ar  421  INH421     -0.0614
     52  C21        4.3920    5.3390   31.0270 C.ar  421  INH421     -0.0617
     53  C22        6.5550    7.0620   30.6330 C.ar  421  INH421     -0.0164
     54  C23        6.6830    5.9410   31.4410 C.ar  421  INH421     -0.0563
     55  H22        5.2150    8.1890   29.3970 H     421  INH421      0.0621
     56  H23        7.6320    5.7340   31.9230 H     421  INH421      0.0621
     57  H24        3.3000    6.6670   29.7410 H     421  INH421      0.0618
     58  H25        5.7260    4.2090   32.2730 H     421  INH421      0.0618
     59  H26        3.5540    4.6680   31.1780 H     421  INH421      0.0618
@<TRIPOS>BOND
     1     1    10    1
     2     1     9    1
     3     1     8    1
     4     1     2    1
     5     2    11    1
     6     2     5    1
     7     2     3    1
     8     3     7   ar
     9     3     4   ar
    10     5    13    1
    11     5    12    1
    12     5     6    1
    13     6    27    1
    14     6    15    1
    15     6    14    1
    16    16    27   am
    17    16    22    1
    18    16    17    1
    19    17    18    1
    20    17    20    1
    21    17    23    1
    22    18    19    2
    23    18    42   am
    24    20    25    1
    25    20    24    1
    26    20    21    1
    27    21    28    1
    28    26    27    2
    29    28    36    1
    30    28    35    1
    31    28    29    1
    32    29    31   ar
    33    29    30   ar
    34    30    37    1
    35    30    32   ar
    36    31    33   ar
    37    31    38    1
    38    32    39    1
    39    32    34   ar
    40    33    34   ar
    41    33    40    1
    42    34    41    1
    43    42    43    1
    44    42    47    1
    45    43    48    1
    46    43    44    1
    47    43    53    1
    48    44    45   ar
    49    44    46   ar
    50    49    53   ar
    51    49    55    1
    52    49    50   ar
    53    50    57    1
    54    50    52   ar
    55    51    52   ar
    56    51    58    1
    57    51    54   ar
    58    52    59    1
    59    53    54   ar
    60    54    56    1
