@<TRIPOS>MOLECULE
/tmp/ewbell/vina_10gs_10gs_lig/vina/vina5.pdbqt
 40 42 0 0 0
SMALL
GASTEIGER

@<TRIPOS>ATOM
      1  N2         7.9870    6.6120   25.7300 N.3   421  INH421     -0.3590
      2  C5         7.9940    6.1180   27.1000 C.3   421  INH421      0.1860
      3  C7         6.7610    6.6250   27.8480 C.3   421  INH421      0.1270
      4  S1         5.1830    6.1260   27.1740 S.3   421  INH421     -0.0740
      5  H9         8.8620    6.7410   25.2630 H     421  INH421      0.1620
      6  O4         5.7450    6.7730   25.5620 O.3   421  INH421     -0.2770
      7  C8         6.8660    6.8990   25.0740 C.3   421  INH421      0.1280
      8  C6         7.9460    4.6020   27.1290 C.2   421  INH421      0.2420
      9  O3         7.7200    3.9540   26.1060 O.2   421  INH421     -0.2710
     10  N3         8.1180    4.0540   28.3230 N.am  421  INH421     -0.3410
     11  H20        8.2950    4.6510   29.1040 H     421  INH421      0.1630
     12  C16        8.0580    2.6210   28.5430 C.3   421  INH421      0.2160
     13  C17        9.3110    1.8680   28.0990 C.2   421  INH421      0.1680
     14  O5        10.4020    2.2600   28.5550 O.2   421  INH421     -0.6480
     15  O6         9.1960    0.9000   27.3160 O.3   421  INH421     -0.7750
     16  H          9.9140    0.6550   26.7660 H     421  INH421      0.1670
     17  C22        7.5690    2.2840   29.9150 C.ar  421  INH421     -0.0250
     18  C18        7.0780    3.2710   30.7610 C.ar  421  INH421      0.0100
     19  C19        6.5550    2.9440   32.0080 C.ar  421  INH421      0.0010
     20  C21        6.5210    1.6180   32.4170 C.ar  421  INH421      0.0000
     21  C20        7.0140    0.6250   31.5800 C.ar  421  INH421      0.0010
     22  C23        7.5340    0.9630   30.3370 C.ar  421  INH421      0.0100
     23  C4         7.0560    7.4480   23.6820 C.3   421  INH421      0.0870
     24  C3         6.2390    6.7240   22.6300 C.3   421  INH421      0.0520
     25  C1         4.9890    7.5000   22.2130 C.3   421  INH421      0.2800
     26  N1         3.8440    7.1440   23.0930 N.4   421  INH421     -0.0650
     27  H3         3.0250    6.9780   22.5300 H     421  INH421      0.2750
     28  H2         4.0680    6.3110   23.6160 H     421  INH421      0.2750
     29  H1         3.6630    7.9020   23.7330 H     421  INH421      0.2750
     30  C2         4.6610    7.2280   20.7400 C.2   421  INH421      0.1710
     31  O2         3.7820    7.9300   20.1990 O.2   421  INH421     -0.6480
     32  O1         5.2920    6.3350   20.1350 O.3   421  INH421     -0.7750
     33  H          6.1960    6.4640   19.9210 H     421  INH421      0.1670
     34  C9         5.3280    4.3320   27.3140 C.3   421  INH421      0.1300
     35  C10        4.5290    3.7460   28.4470 C.ar  421  INH421     -0.0480
     36  C12        4.2830    2.3760   28.5150 C.ar  421  INH421      0.0080
     37  C14        3.5440    1.8340   29.5670 C.ar  421  INH421      0.0010
     38  C15        3.0420    2.6660   30.5600 C.ar  421  INH421      0.0000
     39  C13        3.2830    4.0370   30.5030 C.ar  421  INH421      0.0010
     40  C11        4.0220    4.5680   29.4500 C.ar  421  INH421      0.0080
@<TRIPOS>BOND
     1    33    32    1
     2    32    30    1
     3    31    30    2
     4    30    25    1
     5    25    24    1
     6    25    26    1
     7    27    26    1
     8    24    23    1
     9    26    28    1
    10    26    29    1
    11    23     7    1
    12     7     6    1
    13     7     1    1
    14     5     1    1
    15     6     4    1
    16     1     2    1
    17     9     8    2
    18    16    15    1
    19     2     8    1
    20     2     3    1
    21     8    10   am
    22     4    34    1
    23     4     3    1
    24    34    35    1
    25    15    13    1
    26    13    12    1
    27    13    14    2
    28    10    12    1
    29    10    11    1
    30    35    36   ar
    31    35    40   ar
    32    36    37   ar
    33    12    17    1
    34    40    39   ar
    35    37    38   ar
    36    17    22   ar
    37    17    18   ar
    38    22    21   ar
    39    39    38   ar
    40    18    19   ar
    41    21    20   ar
    42    19    20   ar
