@<TRIPOS>MOLECULE
/tmp/ewbell/vina_10gs_10gs_lig/vina/vina2.pdbqt
 40 42 0 0 0
SMALL
GASTEIGER

@<TRIPOS>ATOM
      1  N2        11.1590    4.1270   26.9890 N.3   421  INH421     -0.3590
      2  C5        11.1000    5.3730   27.7410 C.3   421  INH421      0.1860
      3  C7        11.3760    6.5590   26.8160 C.3   421  INH421      0.1270
      4  S1        10.2310    6.7710   25.4610 S.3   421  INH421     -0.0740
      5  H9        11.4230    3.2900   27.4680 H     421  INH421      0.1620
      6  O4        10.5420    5.0280   25.0160 O.3   421  INH421     -0.2770
      7  C8        10.8760    4.0560   25.6910 C.3   421  INH421      0.1280
      8  C6         9.7210    5.5800   28.3380 C.2   421  INH421      0.2420
      9  O3         9.3600    6.6870   28.7350 O.2   421  INH421     -0.2710
     10  N3         8.9770    4.4870   28.4320 N.am  421  INH421     -0.3410
     11  H20        9.3450    3.6250   28.0860 H     421  INH421      0.1630
     12  C16        7.6500    4.4910   29.0190 C.3   421  INH421      0.2160
     13  C17        6.5220    4.6990   28.0100 C.2   421  INH421      0.1680
     14  O5         6.5030    3.9500   27.0150 O.2   421  INH421     -0.6480
     15  O6         5.6720    5.5920   28.2200 O.3   421  INH421     -0.7750
     16  H          4.8570    5.3750   28.6280 H     421  INH421      0.1670
     17  C22        7.4520    3.3510   29.9650 C.ar  421  INH421     -0.0250
     18  C18        6.7520    3.5220   31.1530 C.ar  421  INH421      0.0100
     19  C19        6.5050    2.4420   31.9960 C.ar  421  INH421      0.0010
     20  C21        6.9610    1.1780   31.6500 C.ar  421  INH421      0.0000
     21  C20        7.6640    0.9980   30.4660 C.ar  421  INH421      0.0010
     22  C23        7.9050    2.0830   29.6320 C.ar  421  INH421      0.0100
     23  C4        11.0410    2.6920   25.0680 C.3   421  INH421      0.0870
     24  C3        11.4010    2.7380   23.5960 C.3   421  INH421      0.0520
     25  C1        10.8930    1.5200   22.8240 C.3   421  INH421      0.2800
     26  N1        10.2670    0.5430   23.7550 N.4   421  INH421     -0.0650
     27  H3         9.3680    0.8870   24.0510 H     421  INH421      0.2750
     28  H2        10.1510   -0.3430   23.2870 H     421  INH421      0.2750
     29  H1        10.8610    0.4190   24.5620 H     421  INH421      0.2750
     30  C2        12.0380    0.8750   22.0340 C.2   421  INH421      0.1710
     31  O2        12.9950    1.6000   21.6980 O.2   421  INH421     -0.6480
     32  O1        11.9800   -0.3460   21.7740 O.3   421  INH421     -0.7750
     33  H         11.4280   -0.6520   21.0810 H     421  INH421      0.1670
     34  C9         8.6930    7.0120   26.3760 C.3   421  INH421      0.1300
     35  C10        7.4680    7.0550   25.5020 C.ar  421  INH421     -0.0480
     36  C12        7.3230    6.1750   24.4320 C.ar  421  INH421      0.0080
     37  C14        6.1850    6.2140   23.6240 C.ar  421  INH421      0.0010
     38  C15        5.1840    7.1420   23.8840 C.ar  421  INH421      0.0000
     39  C13        5.3190    8.0260   24.9520 C.ar  421  INH421      0.0010
     40  C11        6.4560    7.9790   25.7520 C.ar  421  INH421      0.0080
@<TRIPOS>BOND
     1    33    32    1
     2    31    30    2
     3    32    30    1
     4    30    25    1
     5    25    24    1
     6    25    26    1
     7    28    26    1
     8    24    23    1
     9    37    38   ar
    10    37    36   ar
    11    26    27    1
    12    26    29    1
    13    38    39   ar
    14    36    35   ar
    15    39    40   ar
    16     6     4    1
    17     6     7    1
    18    23     7    1
    19     4    34    1
    20     4     3    1
    21    35    40   ar
    22    35    34    1
    23     7     1    1
    24     3     2    1
    25     1     5    1
    26     1     2    1
    27    14    13    2
    28     2     8    1
    29    13    15    1
    30    13    12    1
    31    11    10    1
    32    15    16    1
    33     8    10   am
    34     8     9    2
    35    10    12    1
    36    12    17    1
    37    22    17   ar
    38    22    21   ar
    39    17    18   ar
    40    21    20   ar
    41    18    19   ar
    42    20    19   ar
