@<TRIPOS>MOLECULE
/tmp/ewbell/vina_10gs_10gs_lig/vina/vina3.pdbqt
 40 42 0 0 0
SMALL
GASTEIGER

@<TRIPOS>ATOM
      1  N2        10.5210    3.1950   25.8320 N.3   421  INH421     -0.3590
      2  C5        10.1430    3.3460   27.2310 C.3   421  INH421      0.1860
      3  C7        10.8990    4.5190   27.8560 C.3   421  INH421      0.1270
      4  S1        10.6070    6.1170   27.1130 S.3   421  INH421     -0.0740
      5  H9        10.4710    2.2870   25.4180 H     421  INH421      0.1620
      6  O4        11.0250    5.3680   25.5020 O.3   421  INH421     -0.2770
      7  C8        10.9300    4.2160   25.0840 C.3   421  INH421      0.1280
      8  C6         8.6620    3.6450   27.3620 C.2   421  INH421      0.2420
      9  O3         7.9810    3.9260   26.3760 O.2   421  INH421     -0.2710
     10  N3         8.1880    3.6200   28.6000 N.am  421  INH421     -0.3410
     11  H20        8.8090    3.3830   29.3460 H     421  INH421      0.1630
     12  C16        6.8050    3.9250   28.9150 C.3   421  INH421      0.2160
     13  C17        5.7880    3.0980   28.1310 C.2   421  INH421      0.1680
     14  O5         4.7210    3.6570   27.8150 O.2   421  INH421     -0.6480
     15  O6         6.0640    1.9150   27.8340 O.3   421  INH421     -0.7750
     16  H          6.0920    1.6520   26.9350 H     421  INH421      0.1670
     17  C22        6.5670    3.9900   30.3890 C.ar  421  INH421     -0.0250
     18  C18        6.2610    5.1940   31.0120 C.ar  421  INH421      0.0100
     19  C19        5.9670    5.2390   32.3710 C.ar  421  INH421      0.0010
     20  C21        5.9790    4.0690   33.1190 C.ar  421  INH421      0.0000
     21  C20        6.2880    2.8620   32.5060 C.ar  421  INH421      0.0010
     22  C23        6.5800    2.8290   31.1480 C.ar  421  INH421      0.0100
     23  C4        11.3290    3.8610   23.6720 C.3   421  INH421      0.0870
     24  C3        12.0660    2.5420   23.5650 C.3   421  INH421      0.0520
     25  C1        11.3610    1.5410   22.6490 C.3   421  INH421      0.2800
     26  N1        10.5090    0.6210   23.4490 N.4   421  INH421     -0.0650
     27  H3        10.2410    1.0720   24.3090 H     421  INH421      0.2750
     28  H2         9.6830    0.3820   22.9220 H     421  INH421      0.2750
     29  H1        11.0270   -0.2200   23.6580 H     421  INH421      0.2750
     30  C2        12.3880    0.7630   21.8190 C.2   421  INH421      0.1710
     31  O2        12.1700   -0.4470   21.6050 O.2   421  INH421     -0.6480
     32  O1        13.3880    1.3670   21.3740 O.3   421  INH421     -0.7750
     33  H         13.8860    0.9960   20.6720 H     421  INH421      0.1670
     34  C9         8.8300    6.2770   27.3880 C.3   421  INH421      0.1300
     35  C10        8.4700    7.2490   28.4800 C.ar  421  INH421     -0.0480
     36  C12        9.3790    7.5580   29.4890 C.ar  421  INH421      0.0080
     37  C14        9.0460    8.4610   30.5000 C.ar  421  INH421      0.0010
     38  C15        7.7920    9.0600   30.5060 C.ar  421  INH421      0.0000
     39  C13        6.8750    8.7580   29.5010 C.ar  421  INH421      0.0010
     40  C11        7.2170    7.8570   28.4970 C.ar  421  INH421      0.0080
@<TRIPOS>BOND
     1    33    32    1
     2    32    30    1
     3    31    30    2
     4    30    25    1
     5    25    26    1
     6    25    24    1
     7    28    26    1
     8    26    29    1
     9    26    27    1
    10    24    23    1
    11    23     7    1
    12     7     6    1
    13     7     1    1
    14     5     1    1
    15     6     4    1
    16     1     2    1
    17     9     8    2
    18    16    15    1
    19     4    34    1
    20     4     3    1
    21     2     8    1
    22     2     3    1
    23     8    10   am
    24    34    35    1
    25    14    13    2
    26    15    13    1
    27    13    12    1
    28    35    40   ar
    29    35    36   ar
    30    40    39   ar
    31    10    12    1
    32    10    11    1
    33    12    17    1
    34    36    37   ar
    35    39    38   ar
    36    17    18   ar
    37    17    22   ar
    38    37    38   ar
    39    18    19   ar
    40    22    21   ar
    41    19    20   ar
    42    21    20   ar
