@<TRIPOS>MOLECULE
/tmp/ewbell/vina_10gs_10gs_lig/vina/vina1.pdbqt
 40 42 0 0 0
SMALL
GASTEIGER

@<TRIPOS>ATOM
      1  N2        10.5630    3.3170   27.0720 N.3   421  INH421     -0.3590
      2  C5         9.8000    3.8390   28.1980 C.3   421  INH421      0.1860
      3  C7         9.1740    5.1850   27.8300 C.3   421  INH421      0.1270
      4  S1         8.0320    5.1610   26.4560 S.3   421  INH421     -0.0740
      5  H9        11.3410    2.7170   27.2580 H     421  INH421      0.1620
      6  O4         9.3330    4.3310   25.4790 O.2   421  INH421     -0.2770
      7  C8        10.2680    3.6050   25.8080 C.3   421  INH421      0.1280
      8  C6         8.6670    2.9010   28.5650 C.2   421  INH421      0.2420
      9  O3         8.3200    1.9960   27.8060 O.2   421  INH421     -0.2710
     10  N3         8.0700    3.1610   29.7190 N.am  421  INH421     -0.3410
     11  H20        8.4120    3.9160   30.2770 H     421  INH421      0.1630
     12  C16        6.9390    2.3940   30.2070 C.3   421  INH421      0.2160
     13  C17        7.3250    1.1300   30.9740 C.2   421  INH421      0.1680
     14  O5         7.0010    1.0730   32.1750 O.2   421  INH421     -0.6480
     15  O6         7.9320    0.2150   30.3760 O.3   421  INH421     -0.7750
     16  H          8.6080    0.4250   29.7620 H     421  INH421      0.1670
     17  C22        5.9230    3.2590   30.8800 C.ar  421  INH421     -0.0250
     18  C18        6.2930    4.4470   31.4990 C.ar  421  INH421      0.0100
     19  C19        5.3360    5.2860   32.0600 C.ar  421  INH421      0.0010
     20  C21        3.9930    4.9370   32.0050 C.ar  421  INH421      0.0000
     21  C20        3.6150    3.7490   31.3920 C.ar  421  INH421      0.0010
     22  C23        4.5790    2.9190   30.8350 C.ar  421  INH421      0.0100
     23  C4        11.1990    3.0150   24.7780 C.3   421  INH421      0.0870
     24  C3        10.5650    2.8550   23.4100 C.3   421  INH421      0.0520
     25  C1        10.4970    1.3970   22.9550 C.3   421  INH421      0.2800
     26  N1        10.2980    0.5010   24.1260 N.4   421  INH421     -0.0650
     27  H3        11.0020    0.6920   24.8200 H     421  INH421      0.2750
     28  H2         9.3840    0.6620   24.5210 H     421  INH421      0.2750
     29  H1        10.3680   -0.4610   23.8300 H     421  INH421      0.2750
     30  C2        11.7670    1.0210   22.1810 C.2   421  INH421      0.1710
     31  O2        12.7310    1.8100   22.2250 O.2   421  INH421     -0.6480
     32  O1        11.7940   -0.0610   21.5560 O.3   421  INH421     -0.7750
     33  H         11.2330   -0.1890   20.8160 H     421  INH421      0.1670
     34  C9         6.7850    4.0240   27.0970 C.3   421  INH421      0.1300
     35  C10        5.5310    4.7070   27.5740 C.ar  421  INH421     -0.0480
     36  C12        5.5900    5.9410   28.2170 C.ar  421  INH421      0.0080
     37  C14        4.4270    6.5750   28.6570 C.ar  421  INH421      0.0010
     38  C15        3.1920    5.9700   28.4560 C.ar  421  INH421      0.0000
     39  C13        3.1210    4.7360   27.8130 C.ar  421  INH421      0.0010
     40  C11        4.2870    4.1130   27.3770 C.ar  421  INH421      0.0080
@<TRIPOS>BOND
     1    33    32    1
     2    32    30    1
     3    30    31    2
     4    30    25    1
     5    25    24    1
     6    25    26    1
     7    24    23    1
     8    29    26    1
     9    26    28    1
    10    26    27    1
    11    23     7    1
    12     6     7    1
    13     7     1    1
    14     4    34    1
    15     4     3    1
    16     1     5    1
    17     1     2    1
    18    34    35    1
    19    40    35   ar
    20    40    39   ar
    21    35    36   ar
    22     9     8    2
    23    39    38   ar
    24     3     2    1
    25     2     8    1
    26    36    37   ar
    27    38    37   ar
    28     8    10   am
    29    10    12    1
    30    10    11    1
    31    16    15    1
    32    12    17    1
    33    12    13    1
    34    15    13    1
    35    22    17   ar
    36    22    21   ar
    37    17    18   ar
    38    13    14    2
    39    21    20   ar
    40    18    19   ar
    41    20    19   ar
