@<TRIPOS>MOLECULE
/tmp/ewbell/vina_10gs_10gs_lig/vina/vina4.pdbqt
 40 42 0 0 0
SMALL
GASTEIGER

@<TRIPOS>ATOM
      1  N2        10.3940    6.0280   25.0450 N.3   421  INH421     -0.3590
      2  C5         9.4260    6.8340   25.7770 C.3   421  INH421      0.1860
      3  C7         8.0170    6.5760   25.2430 C.3   421  INH421      0.1270
      4  S1         7.4300    4.8940   25.3780 S.3   421  INH421     -0.0740
      5  H9        11.3310    6.3660   24.9600 H     421  INH421      0.1620
      6  O4         8.9600    4.3650   24.5350 O.3   421  INH421     -0.2770
      7  C8        10.0830    4.8630   24.4840 C.3   421  INH421      0.1280
      8  C6         9.4230    6.4690   27.2490 C.2   421  INH421      0.2420
      9  O3         9.9870    5.4520   27.6530 O.2   421  INH421     -0.2710
     10  N3         8.7430    7.2940   28.0330 N.am  421  INH421     -0.3410
     11  H20        8.3120    8.0980   27.6260 H     421  INH421      0.1630
     12  C16        8.5960    7.0750   29.4610 C.3   421  INH421      0.2160
     13  C17        9.3400    8.0890   30.3280 C.2   421  INH421      0.1680
     14  O5        10.4920    7.7890   30.6940 O.2   421  INH421     -0.6480
     15  O6         8.7780    9.1660   30.6240 O.3   421  INH421     -0.7750
     16  H          8.3130    9.6470   29.9690 H     421  INH421      0.1670
     17  C22        7.1730    6.8330   29.8480 C.ar  421  INH421     -0.0250
     18  C18        6.8540    6.0060   30.9180 C.ar  421  INH421      0.0100
     19  C19        5.5330    5.8420   31.3220 C.ar  421  INH421      0.0010
     20  C21        4.5180    6.5100   30.6520 C.ar  421  INH421      0.0000
     21  C20        4.8270    7.3350   29.5780 C.ar  421  INH421      0.0010
     22  C23        6.1490    7.4910   29.1830 C.ar  421  INH421      0.0100
     23  C4        11.2010    4.1940   23.7230 C.3   421  INH421      0.0870
     24  C3        11.4480    2.7600   24.1470 C.3   421  INH421      0.0520
     25  C1        10.8590    1.7430   23.1690 C.3   421  INH421      0.2800
     26  N1        10.1290    0.6790   23.9100 N.4   421  INH421     -0.0650
     27  H3        10.0260   -0.1320   23.3210 H     421  INH421      0.2750
     28  H2        10.6480    0.4290   24.7380 H     421  INH421      0.2750
     29  H1         9.2180    1.0190   24.1760 H     421  INH421      0.2750
     30  C2        11.9660    1.1460   22.2910 C.2   421  INH421      0.1710
     31  O2        12.9650    1.8520   22.0530 O.2   421  INH421     -0.6480
     32  O1        11.8350   -0.0220   21.8660 O.3   421  INH421     -0.7750
     33  H         12.2390   -0.2750   21.0590 H     421  INH421      0.1670
     34  C9         7.4890    4.6770   27.1700 C.3   421  INH421      0.1300
     35  C10        6.2340    4.0830   27.7500 C.ar  421  INH421     -0.0480
     36  C12        6.2970    3.1000   28.7350 C.ar  421  INH421      0.0080
     37  C14        5.1320    2.5530   29.2750 C.ar  421  INH421      0.0010
     38  C15        3.8910    2.9880   28.8250 C.ar  421  INH421      0.0000
     39  C13        3.8160    3.9710   27.8410 C.ar  421  INH421      0.0010
     40  C11        4.9830    4.5110   27.3100 C.ar  421  INH421      0.0080
@<TRIPOS>BOND
     1    33    32    1
     2    32    30    1
     3    31    30    2
     4    30    25    1
     5    25    26    1
     6    25    24    1
     7    27    26    1
     8    23    24    1
     9    23     7    1
    10    26    29    1
    11    26    28    1
    12     7     6    1
    13     7     1    1
    14     6     4    1
    15     5     1    1
    16     1     2    1
    17     3     4    1
    18     3     2    1
    19     4    34    1
    20     2     8    1
    21    34    35    1
    22     8     9    2
    23     8    10   am
    24    40    35   ar
    25    40    39   ar
    26    11    10    1
    27    35    36   ar
    28    39    38   ar
    29    10    12    1
    30    36    37   ar
    31    38    37   ar
    32    22    21   ar
    33    22    17   ar
    34    12    17    1
    35    12    13    1
    36    21    20   ar
    37    17    18   ar
    38    16    15    1
    39    13    15    1
    40    13    14    2
    41    20    19   ar
    42    18    19   ar
