@<TRIPOS>MOLECULE
./ligand/2q8z_lig.pdb
 34 35 0 0 0
SMALL
GASTEIGER

@<TRIPOS>ATOM
      1  O1         5.2270  -23.3300  -20.6720 O.2   656  INH656     -0.2677
      2  C1         5.9620  -23.8770  -21.4960 C.ar  656  INH656      0.2558
      3  N1         5.8170  -25.1960  -21.6870 N.ar  656  INH656     -0.2748
      4  C2         6.5890  -25.8660  -22.5730 C.ar  656  INH656      0.3328
      5  O2         6.4300  -27.0960  -22.7290 O.2   656  INH656     -0.2463
      6  C3         6.8730  -23.0950  -22.2070 C.ar  656  INH656      0.0409
      7  C4         7.6720  -23.7650  -23.1120 C.ar  656  INH656      0.1075
      8  N2         8.5700  -23.0610  -23.8290 N.pl3 656  INH656     -0.3442
      9  N3         7.5590  -25.1650  -23.3120 N.ar  656  INH656     -0.2526
     10  C5         8.4490  -25.8260  -24.2840 C.3   656  INH656      0.1696
     11  O3         7.7550  -26.3910  -25.4040 O.3   656  INH656     -0.3455
     12  C6         9.2070  -26.9930  -23.6360 C.3   656  INH656      0.1286
     13  O4        10.4120  -26.6700  -22.9170 O.3   656  INH656     -0.3847
     14  C7         9.4860  -27.8550  -24.8670 C.3   656  INH656      0.1136
     15  O5        10.6040  -27.2840  -25.5580 O.3   656  INH656     -0.3864
     16  C8         8.2330  -27.6860  -25.7240 C.3   656  INH656      0.1134
     17  C9         7.1340  -28.7070  -25.4480 C.3   656  INH656      0.0880
     18  O6         7.4920  -29.8980  -26.1220 O.3   656  INH656     -0.2809
     19  P1         6.6050  -31.2480  -26.0850 P.3   656  INH656      0.5320
     20  O7         5.5150  -31.2040  -27.1510 O.2   656  INH656     -0.2224
     21  O8         7.6420  -32.3150  -26.3270 O.3   656  INH656     -0.1145
     22  O9         6.0030  -31.2750  -24.6990 O.3   656  INH656     -0.1145
     23  H1         5.1250  -25.6940  -21.1640 H     656  INH656      0.1734
     24  H2         6.9490  -22.0190  -22.0570 H     656  INH656      0.0706
     25  H3         8.6580  -22.0440  -23.6890 H     656  INH656      0.1437
     26  H4         9.1690  -23.5400  -24.5170 H     656  INH656      0.1437
     27  H5         9.1680  -25.0780  -24.6480 H     656  INH656      0.0867
     28  H6         8.5410  -27.5210  -22.9380 H     656  INH656      0.0665
     29  H7        10.2070  -26.0730  -22.2070 H     656  INH656      0.2101
     30  H8         9.6710  -28.9080  -24.6080 H     656  INH656      0.0647
     31  H9        10.7980  -27.8030  -26.3300 H     656  INH656      0.2100
     32  H10        8.5060  -27.7450  -26.7880 H     656  INH656      0.0647
     33  H11        7.0560  -28.8940  -24.3670 H     656  INH656      0.0592
     34  H12        6.1700  -28.3350  -25.8260 H     656  INH656      0.0592
@<TRIPOS>BOND
     1    20    19    2
     2    32    16    1
     3    31    15    1
     4    21    19    1
     5    18    19    1
     6    18    17    1
     7    19    22    1
     8    34    17    1
     9    16    17    1
    10    16    11    1
    11    16    14    1
    12    15    14    1
    13    17    33    1
    14    11    10    1
    15    14    30    1
    16    14    12    1
    17    27    10    1
    18    26     8    1
    19    10    12    1
    20    10     9    1
    21     8    25    1
    22     8     7    1
    23    12    28    1
    24    12    13    1
    25     9     7   ar
    26     9     4   ar
    27     7     6   ar
    28    13    29    1
    29     5     4    2
    30     4     3   ar
    31     6    24    1
    32     6     2   ar
    33     3     2   ar
    34     3    23    1
    35     2     1    2
