@<TRIPOS>MOLECULE
/tmp/ewbell/vina_2q8z_2q8z_lig/vina/vina2.pdbqt
 29 30 0 0 0
SMALL
GASTEIGER

@<TRIPOS>ATOM
      1  C5         8.5950  -28.5710  -24.1590 C.3   656  INH656      0.2660
      2  O3         7.9360  -28.1370  -22.9610 O.3   656  INH656     -0.3530
      3  C6         8.9360  -27.2880  -24.9300 C.3   656  INH656      0.1980
      4  C7         9.1470  -26.3180  -23.7680 C.3   656  INH656      0.1820
      5  C8         8.1050  -26.7480  -22.7380 C.3   656  INH656      0.1800
      6  N3         7.7820  -29.4860  -24.9800 N.ar  656  INH656     -0.2550
      7  C2         6.4690  -29.1790  -25.3830 C.ar  656  INH656      0.3330
      8  N1         5.7870  -30.0610  -26.1490 N.ar  656  INH656     -0.2750
      9  O2         5.9270  -28.1080  -25.0370 O.2   656  INH656     -0.2460
     10  C1         6.3410  -31.2190  -26.5370 C.ar  656  INH656      0.2520
     11  H1         4.8530  -29.8460  -26.4330 H     656  INH656      0.1730
     12  O1         5.6640  -31.9750  -27.2370 O.2   656  INH656     -0.2680
     13  C3         7.6220  -31.6210  -26.1590 C.ar  656  INH656      0.1220
     14  C4         8.3330  -30.7300  -25.3800 C.ar  656  INH656      0.1120
     15  N2         9.5770  -31.0650  -24.9830 N.pl3 656  INH656     -0.3850
     16  H4         9.8500  -32.0570  -24.9270 H     656  INH656      0.1570
     17  H3        10.2540  -30.3290  -24.7370 H     656  INH656      0.1570
     18  O4        10.0760  -27.3380  -25.8080 O.3   656  INH656     -0.3880
     19  H7         9.8940  -26.8330  -26.5930 H     656  INH656      0.2100
     20  C9         6.7550  -26.0520  -22.8720 C.3   656  INH656      0.2150
     21  O6         7.0050  -24.6600  -22.9050 O.3   656  INH656     -0.2940
     22  P1         6.8930  -23.7000  -21.6100 P.3   656  INH656      0.3900
     23  O7         5.7080  -24.1060  -20.7410 O.2   656  INH656     -0.6320
     24  O8         8.2290  -23.9110  -20.9430 O.3   656  INH656     -0.3070
     25  H          8.7090  -24.6180  -21.4000 H     656  INH656      0.2220
     26  O9         6.6970  -22.3130  -22.1750 O.3   656  INH656     -0.3070
     27  H          6.6650  -21.6690  -21.4500 H     656  INH656      0.2220
     28  O5        10.4560  -26.5520  -23.2340 O.3   656  INH656     -0.3900
     29  H9        11.0980  -26.4940  -23.9320 H     656  INH656      0.2100
@<TRIPOS>BOND
     1    12    10    2
     2    19    18    1
     3    10    13   ar
     4    10     8   ar
     5    11     8    1
     6    13    14   ar
     7     8     7   ar
     8    18     3    1
     9     7     9    2
    10     7     6   ar
    11    14    15    1
    12    14     6   ar
    13    15    16    1
    14    15    17    1
    15     6     1    1
    16     3     1    1
    17     3     4    1
    18     1     2    1
    19    29    28    1
    20     4    28    1
    21     4     5    1
    22     2     5    1
    23    21    20    1
    24    21    22    1
    25    20     5    1
    26    26    22    1
    27    26    27    1
    28    22    24    1
    29    22    23    2
    30    25    24    1
