@<TRIPOS>MOLECULE
/tmp/ewbell/vina_2q8z_2q8z_lig/vina/vina4.pdbqt
 29 30 0 0 0
SMALL
GASTEIGER

@<TRIPOS>ATOM
      1  C5         8.3100  -29.3170  -25.3010 C.3   656  INH656      0.2660
      2  O3         8.1860  -28.9140  -23.9310 O.3   656  INH656     -0.3530
      3  C6         8.3100  -28.0150  -26.1150 C.3   656  INH656      0.1980
      4  C7         8.9680  -27.0660  -25.1140 C.3   656  INH656      0.1820
      5  C8         8.4270  -27.5280  -23.7620 C.3   656  INH656      0.1800
      6  N3         7.2380  -30.2240  -25.7490 N.ar  656  INH656     -0.2550
      7  C2         7.4850  -31.5490  -26.1530 C.ar  656  INH656      0.3330
      8  N1         6.4490  -32.3290  -26.5380 N.ar  656  INH656     -0.2750
      9  O2         8.6470  -32.0080  -26.1660 O.2   656  INH656     -0.2460
     10  C1         5.1910  -31.8660  -26.5350 C.ar  656  INH656      0.2520
     11  H1         6.6250  -33.2700  -26.8290 H     656  INH656      0.1730
     12  O1         4.2950  -32.6320  -26.8960 O.2   656  INH656     -0.2680
     13  C3         4.8560  -30.5580  -26.1830 C.ar  656  INH656      0.1220
     14  C4         5.9010  -29.7500  -25.7840 C.ar  656  INH656      0.1120
     15  N2         5.6380  -28.4760  -25.4320 N.pl3 656  INH656     -0.3850
     16  H4         6.1270  -27.7010  -25.9020 H     656  INH656      0.1570
     17  H3         4.9470  -28.2780  -24.6940 H     656  INH656      0.1570
     18  O4         9.0030  -28.0350  -27.3780 O.3   656  INH656     -0.3880
     19  H7         8.9670  -27.1710  -27.7720 H     656  INH656      0.2100
     20  C9         7.1350  -26.8440  -23.3290 C.3   656  INH656      0.2150
     21  O6         7.2890  -25.4610  -23.5820 O.3   656  INH656     -0.2940
     22  P1         7.2610  -24.3320  -22.4270 P.3   656  INH656      0.3900
     23  O7         5.9550  -24.3970  -21.6430 O.2   656  INH656     -0.6320
     24  O8         8.4740  -24.6880  -21.6060 O.3   656  INH656     -0.3070
     25  H          8.9280  -25.4420  -22.0120 H     656  INH656      0.2220
     26  O9         7.3800  -23.0200  -23.1670 O.3   656  INH656     -0.3070
     27  H          6.9790  -22.3120  -22.6400 H     656  INH656      0.2220
     28  O5        10.3810  -27.2960  -25.1540 O.3   656  INH656     -0.3900
     29  H9        10.8270  -26.6230  -24.6520 H     656  INH656      0.2100
@<TRIPOS>BOND
     1    19    18    1
     2    18     3    1
     3    12    10    2
     4    11     8    1
     5     8    10   ar
     6     8     7   ar
     7    10    13   ar
     8    13    14   ar
     9     9     7    2
    10     7     6   ar
    11     3     1    1
    12     3     4    1
    13    16    15    1
    14    14     6   ar
    15    14    15    1
    16     6     1    1
    17    15    17    1
    18     1     2    1
    19    28     4    1
    20    28    29    1
    21     4     5    1
    22     2     5    1
    23     5    20    1
    24    21    20    1
    25    21    22    1
    26    26    27    1
    27    26    22    1
    28    22    23    2
    29    22    24    1
    30    25    24    1
