@<TRIPOS>MOLECULE
/tmp/ewbell/vina_2q8z_2q8z_lig/vina/vina5.pdbqt
 29 30 0 0 0
SMALL
GASTEIGER

@<TRIPOS>ATOM
      1  C5         9.1140  -27.9710  -23.8790 C.3   656  INH656      0.2660
      2  O3         8.2960  -27.5820  -22.7680 O.3   656  INH656     -0.3530
      3  C6         9.1610  -26.7470  -24.8050 C.3   656  INH656      0.1980
      4  C7         9.0490  -25.6220  -23.7770 C.3   656  INH656      0.1820
      5  C8         8.0920  -26.1810  -22.7250 C.3   656  INH656      0.1800
      6  N3         8.6110  -29.1590  -24.5940 N.ar  656  INH656     -0.2550
      7  C2         9.2910  -30.3900  -24.5890 C.ar  656  INH656      0.3330
      8  N1         8.7620  -31.4430  -25.2560 N.ar  656  INH656     -0.2750
      9  O2        10.3770  -30.5200  -23.9840 O.2   656  INH656     -0.2460
     10  C1         7.6000  -31.3350  -25.9150 C.ar  656  INH656      0.2520
     11  H1         9.2470  -32.3170  -25.2560 H     656  INH656      0.1730
     12  O1         7.1750  -32.3340  -26.4990 O.2   656  INH656     -0.2680
     13  C3         6.8740  -30.1470  -26.0020 C.ar  656  INH656      0.1220
     14  C4         7.3980  -29.0650  -25.3240 C.ar  656  INH656      0.1120
     15  N2         6.7410  -27.8890  -25.3720 N.pl3 656  INH656     -0.3850
     16  H4         7.0820  -27.1330  -25.9830 H     656  INH656      0.1570
     17  H3         5.8960  -27.7470  -24.7990 H     656  INH656      0.1570
     18  O4        10.3260  -26.6040  -25.6390 O.3   656  INH656     -0.3880
     19  H7        10.5780  -25.6890  -25.6770 H     656  INH656      0.2100
     20  C9         6.6190  -25.8820  -22.9860 C.3   656  INH656      0.2150
     21  O6         6.1340  -25.1650  -21.8670 O.3   656  INH656     -0.2940
     22  P1         6.2870  -23.5650  -21.6960 P.3   656  INH656      0.3900
     23  O7         6.9300  -22.9510  -22.9330 O.2   656  INH656     -0.6320
     24  O8         4.8590  -23.1310  -21.4800 O.3   656  INH656     -0.3070
     25  H          4.3390  -23.8820  -21.1540 H     656  INH656      0.2220
     26  O9         7.1730  -23.3920  -20.4850 O.3   656  INH656     -0.3070
     27  H          6.6780  -23.6260  -19.6840 H     656  INH656      0.2220
     28  O5        10.3400  -25.4400  -23.1820 O.3   656  INH656     -0.3900
     29  H9        10.2810  -25.5870  -22.2450 H     656  INH656      0.2100
@<TRIPOS>BOND
     1    12    10    2
     2    13    10   ar
     3    13    14   ar
     4    16    15    1
     5    10     8   ar
     6    19    18    1
     7    18     3    1
     8    15    14    1
     9    15    17    1
    10    14     6   ar
    11     8    11    1
    12     8     7   ar
    13     3     1    1
    14     3     4    1
    15     6     7   ar
    16     6     1    1
    17     7     9    2
    18     1     2    1
    19     4    28    1
    20     4     5    1
    21    28    29    1
    22    20     5    1
    23    20    21    1
    24    23    22    2
    25     2     5    1
    26    21    22    1
    27    22    24    1
    28    22    26    1
    29    24    25    1
    30    26    27    1
