@<TRIPOS>MOLECULE
/tmp/ewbell/vina_2q8z_2q8z_lig/vina/vina1.pdbqt
 29 30 0 0 0
SMALL
GASTEIGER

@<TRIPOS>ATOM
      1  C5         8.3500  -25.8480  -24.3950 C.3   656  INH656      0.2660
      2  O3         7.6440  -26.5420  -25.4310 O.3   656  INH656     -0.3530
      3  C6         9.1970  -26.9140  -23.6860 C.3   656  INH656      0.1980
      4  C7         9.4730  -27.8630  -24.8520 C.3   656  INH656      0.1820
      5  C8         8.1790  -27.8330  -25.6630 C.3   656  INH656      0.1800
      6  N3         7.4650  -25.1520  -23.4420 N.ar  656  INH656     -0.2550
      7  C2         6.6570  -25.8390  -22.5180 C.ar  656  INH656      0.3330
      8  N1         5.8800  -25.1340  -21.6630 N.ar  656  INH656     -0.2750
      9  O2         6.6450  -27.0890  -22.4820 O.2   656  INH656     -0.2460
     10  C1         5.8700  -23.7940  -21.6770 C.ar  656  INH656      0.2520
     11  H1         5.3030  -25.6220  -21.0080 H     656  INH656      0.1730
     12  O1         5.1400  -23.2160  -20.8700 O.2   656  INH656     -0.2680
     13  C3         6.6120  -23.0300  -22.5790 C.ar  656  INH656      0.1220
     14  C4         7.4130  -23.7350  -23.4550 C.ar  656  INH656      0.1120
     15  N2         8.1520  -23.0500  -24.3510 N.pl3 656  INH656     -0.3850
     16  H4         7.7280  -22.2800  -24.8870 H     656  INH656      0.1570
     17  H3         9.1420  -23.2970  -24.4980 H     656  INH656      0.1570
     18  O4        10.4100  -26.4700  -23.0510 O.3   656  INH656     -0.3880
     19  H7        11.1110  -27.0830  -23.2420 H     656  INH656      0.2100
     20  C9         7.1500  -28.8820  -25.2540 C.3   656  INH656      0.2150
     21  O6         6.6600  -29.4720  -26.4430 O.3   656  INH656     -0.2940
     22  P1         5.4540  -30.5480  -26.4750 P.3   656  INH656      0.3900
     23  O7         4.7640  -30.6230  -25.1180 O.2   656  INH656     -0.6320
     24  O8         4.5730  -30.0030  -27.5700 O.3   656  INH656     -0.3070
     25  H          4.9480  -30.2350  -28.4330 H     656  INH656      0.2220
     26  O9         6.1190  -31.8610  -26.8160 O.3   656  INH656     -0.3070
     27  H          6.8300  -32.0400  -26.1790 H     656  INH656      0.2220
     28  O5        10.5290  -27.2970  -25.6380 O.3   656  INH656     -0.3900
     29  H9        11.3610  -27.6650  -25.3630 H     656  INH656      0.2100
@<TRIPOS>BOND
     1    25    24    1
     2    24    22    1
     3    26    22    1
     4    26    27    1
     5    22    21    1
     6    22    23    2
     7    21    20    1
     8     5     2    1
     9     5    20    1
    10     5     4    1
    11    28    29    1
    12    28     4    1
    13     2     1    1
    14    16    15    1
    15     4     3    1
    16    17    15    1
    17     1     3    1
    18     1     6    1
    19    15    14    1
    20     3    18    1
    21    14     6   ar
    22    14    13   ar
    23     6     7   ar
    24    19    18    1
    25    13    10   ar
    26     7     9    2
    27     7     8   ar
    28    10     8   ar
    29    10    12    2
    30     8    11    1
