@<TRIPOS>MOLECULE
/tmp/ewbell/vina_2q8z_2q8z_lig/vina/vina3.pdbqt
 29 30 0 0 0
SMALL
GASTEIGER

@<TRIPOS>ATOM
      1  C5         8.4390  -25.6780  -24.3830 C.3   656  INH656      0.2660
      2  O3         7.7090  -26.2720  -25.4640 O.3   656  INH656     -0.3530
      3  C6         9.0940  -26.8480  -23.6350 C.3   656  INH656      0.1980
      4  C7         9.3100  -27.8240  -24.7910 C.3   656  INH656      0.1820
      5  C8         8.0810  -27.6230  -25.6760 C.3   656  INH656      0.1800
      6  N3         7.5990  -24.8730  -23.4770 N.ar  656  INH656     -0.2550
      7  C2         7.6050  -23.4660  -23.4890 C.ar  656  INH656      0.3330
      8  N1         6.7960  -22.7920  -22.6390 N.ar  656  INH656     -0.2750
      9  O2         8.3490  -22.8350  -24.2700 O.2   656  INH656     -0.2460
     10  C1         5.9860  -23.4390  -21.7900 C.ar  656  INH656      0.2520
     11  H1         6.8020  -21.7920  -22.6450 H     656  INH656      0.1730
     12  O1         5.2750  -22.7630  -21.0440 O.2   656  INH656     -0.2680
     13  C3         5.9380  -24.8300  -21.6840 C.ar  656  INH656      0.1220
     14  C4         6.7540  -25.5320  -22.5480 C.ar  656  INH656      0.1120
     15  N2         6.7510  -26.8790  -22.4920 N.pl3 656  INH656     -0.3850
     16  H4         7.3420  -27.4230  -23.1370 H     656  INH656      0.1570
     17  H3         6.1580  -27.3640  -21.8020 H     656  INH656      0.1570
     18  O4        10.3170  -26.5680  -22.9280 O.3   656  INH656     -0.3880
     19  H7        10.1860  -25.8230  -22.3530 H     656  INH656      0.2100
     20  C9         6.9010  -28.5260  -25.3350 C.3   656  INH656      0.2150
     21  O6         7.3740  -29.8590  -25.3580 O.3   656  INH656     -0.2940
     22  P1         6.5500  -31.0900  -26.0020 P.3   656  INH656      0.3900
     23  O7         7.5000  -32.1800  -26.4840 O.2   656  INH656     -0.6320
     24  O8         5.6720  -31.5200  -24.8550 O.3   656  INH656     -0.3070
     25  H          5.7110  -32.4840  -24.7620 H     656  INH656      0.2220
     26  O9         5.7950  -30.4820  -27.1620 O.3   656  INH656     -0.3070
     27  H          5.8480  -31.0740  -27.9290 H     656  INH656      0.2220
     28  O5        10.4760  -27.4020  -25.5100 O.3   656  INH656     -0.3900
     29  H9        10.2890  -26.5910  -25.9680 H     656  INH656      0.2100
@<TRIPOS>BOND
     1    27    26    1
     2    26    22    1
     3    23    22    2
     4    22    21    1
     5    22    24    1
     6    29    28    1
     7     5     2    1
     8     5    20    1
     9     5     4    1
    10    28     4    1
    11     2     1    1
    12    21    20    1
    13    24    25    1
    14     4     3    1
    15     1     3    1
    16     1     6    1
    17     9     7    2
    18     3    18    1
    19     7     6   ar
    20     7     8   ar
    21     6    14   ar
    22    16    15    1
    23    18    19    1
    24    11     8    1
    25     8    10   ar
    26    14    15    1
    27    14    13   ar
    28    15    17    1
    29    10    13   ar
    30    10    12    2
