@<TRIPOS>MOLECULE
./ligand/1y1z_lig.pdb
 17 17 0 0 0
SMALL
GASTEIGER

@<TRIPOS>ATOM
      1  N1        21.1770   31.2640    7.6480 N.4   287  INH287      0.2311
      2  O1        22.9300   34.0990    8.9290 O.co2 287  INH287     -0.2396
      3  C1        21.3890   32.6990    7.8520 C.3   287  INH287      0.0889
      4  C2        22.6440   32.8520    8.6970 C.2   287  INH287      0.4056
      5  C3        21.4260   33.4870    6.5130 C.3   287  INH287      0.0040
      6  C4        20.0600   34.0470    6.8090 C.3   287  INH287     -0.0412
      7  C5        20.1430   33.5410    8.2560 C.3   287  INH287      0.0040
      8  O2        23.2630   31.9250    9.1010 O.co2 287  INH287     -0.2396
      9  H1        20.3500   31.1230    7.0890 H     287  INH287      0.2005
     10  H2        21.0610   30.8110    8.5410 H     287  INH287      0.2005
     11  H3        21.9740   30.8710    7.1730 H     287  INH287      0.2005
     12  H4        21.4660   32.8500    5.6170 H     287  INH287      0.0328
     13  H5        22.2210   34.2450    6.4590 H     287  INH287      0.0328
     14  H6        19.2520   33.5870    6.2210 H     287  INH287      0.0270
     15  H7        19.9980   35.1420    6.7220 H     287  INH287      0.0270
     16  H8        20.3460   34.3250    9.0000 H     287  INH287      0.0328
     17  H9        19.2770   32.9450    8.5790 H     287  INH287      0.0328
@<TRIPOS>BOND
     1     1    11    1
     2     1    10    1
     3     1     9    1
     4     1     3    1
     5     2     4   ar
     6     3     7    1
     7     3     5    1
     8     3     4    1
     9     4     8   ar
    10     5    13    1
    11     5    12    1
    12     5     6    1
    13     6    15    1
    14     6    14    1
    15     6     7    1
    16     7    17    1
    17     7    16    1
