@<TRIPOS>MOLECULE
/tmp/ewbell/vina_1y1z_1y1z_lig/vina/vina2.pdbqt
 12 12 0 0 0
SMALL
GASTEIGER

@<TRIPOS>ATOM
      1  C1        30.9100   40.7300    8.0650 C.3   287  INH287      0.2070
      2  C3        31.0620   39.3110    8.6790 C.3   287  INH287      0.0500
      3  C4        32.5180   39.5870    8.9460 C.3   287  INH287      0.0060
      4  C5        32.3130   41.0780    8.6440 C.3   287  INH287      0.0500
      5  N1        30.7890   40.6950    6.6050 N.4   287  INH287     -0.0600
      6  H3        30.6650   39.7430    6.3010 H     287  INH287      0.2750
      7  H2        29.9940   41.2450    6.3200 H     287  INH287      0.2750
      8  H1        31.6270   41.0740    6.1900 H     287  INH287      0.2750
      9  C2        29.7180   41.5120    8.5950 C.2   287  INH287      0.1770
     10  O1        28.7580   41.5960    7.7220 O.2   287  INH287     -0.6480
     11  O2        29.6840   41.9660    9.6890 O.3   287  INH287     -0.7750
     12  H         29.4680   42.8680    9.8160 H     287  INH287      0.1670
@<TRIPOS>BOND
     1     8     5    1
     2     6     5    1
     3     7     5    1
     4     5     1    1
     5    10     9    2
     6     1     9    1
     7     1     4    1
     8     1     2    1
     9     9    11    1
    10     4     3    1
    11     2     3    1
    12    11    12    1
