@<TRIPOS>MOLECULE
/tmp/ewbell/vina_1y1z_1y1z_lig/vina/vina1.pdbqt
 12 12 0 0 0
SMALL
GASTEIGER

@<TRIPOS>ATOM
      1  C1        30.6730   41.1130    8.5920 C.3   287  INH287      0.2070
      2  C3        31.3600   40.4130    7.3870 C.3   287  INH287      0.0500
      3  C4        31.3610   39.1130    8.1470 C.3   287  INH287      0.0060
      4  C5        30.4100   39.7030    9.1980 C.3   287  INH287      0.0500
      5  N1        31.5920   41.9850    9.3270 N.4   287  INH287     -0.0600
      6  H3        31.0910   42.7920    9.6650 H     287  INH287      0.2750
      7  H2        31.9820   41.4810   10.1080 H     287  INH287      0.2750
      8  H1        32.3340   42.2840    8.7140 H     287  INH287      0.2750
      9  C2        29.4620   41.9520    8.2150 C.2   287  INH287      0.1770
     10  O1        29.6440   43.2150    8.4610 O.2   287  INH287     -0.6480
     11  O2        28.4830   41.4860    7.7350 O.3   287  INH287     -0.7750
     12  H         28.0200   41.9520    7.0680 H     287  INH287      0.1670
@<TRIPOS>BOND
     1    12    11    1
     2     2     3    1
     3     2     1    1
     4    11     9    1
     5     3     4    1
     6     9    10    2
     7     9     1    1
     8     1     4    1
     9     1     5    1
    10     8     5    1
    11     5     6    1
    12     5     7    1
