@<TRIPOS>MOLECULE
/tmp/ewbell/vina_1y1z_1y1z_lig/vina/vina5.pdbqt
 12 12 0 0 0
SMALL
GASTEIGER

@<TRIPOS>ATOM
      1  C1        32.4120   40.2570    8.1780 C.3   287  INH287      0.2070
      2  C3        33.2000   39.2090    9.0120 C.3   287  INH287      0.0500
      3  C4        34.3590   39.3260    8.0580 C.3   287  INH287      0.0060
      4  C5        33.7350   40.5760    7.4200 C.3   287  INH287      0.0500
      5  N1        31.3340   39.6500    7.3950 N.4   287  INH287     -0.0600
      6  H3        30.5610   39.4280    8.0020 H     287  INH287      0.2750
      7  H2        31.0280   40.2970    6.6850 H     287  INH287      0.2750
      8  H1        31.6700   38.8060    6.9580 H     287  INH287      0.2750
      9  C2        31.7920   41.3710    9.0070 C.2   287  INH287      0.1770
     10  O1        32.5360   42.4370    9.0310 O.2   287  INH287     -0.6480
     11  O2        30.7420   41.2620    9.5450 O.3   287  INH287     -0.7750
     12  H         30.6950   40.9340   10.4210 H     287  INH287      0.1670
@<TRIPOS>BOND
     1     7     5    1
     2     8     5    1
     3     5     6    1
     4     5     1    1
     5     4     3    1
     6     4     1    1
     7     3     2    1
     8     1     9    1
     9     1     2    1
    10     9    10    2
    11     9    11    1
    12    11    12    1
