@<TRIPOS>MOLECULE
/tmp/ewbell/vina_1y1z_1y1z_lig/vina/vina4.pdbqt
 12 12 0 0 0
SMALL
GASTEIGER

@<TRIPOS>ATOM
      1  C1        15.0760   22.6110    1.3610 C.3   287  INH287      0.2070
      2  C3        14.6230   23.6340    0.2830 C.3   287  INH287      0.0500
      3  C4        16.0010   24.2420    0.2860 C.3   287  INH287      0.0060
      4  C5        16.5450   23.0570    1.0970 C.3   287  INH287      0.0500
      5  N1        14.5230   22.9140    2.6830 N.4   287  INH287     -0.0600
      6  H3        15.2360   22.7860    3.3830 H     287  INH287      0.2750
      7  H2        14.2000   23.8680    2.7020 H     287  INH287      0.2750
      8  H1        13.7510   22.2940    2.8740 H     287  INH287      0.2750
      9  C2        14.7120   21.1690    1.0410 C.2   287  INH287      0.1770
     10  O1        15.0040   20.8500   -0.1850 O.2   287  INH287     -0.6480
     11  O2        14.2350   20.4360    1.8400 O.3   287  INH287     -0.7750
     12  H         14.0330   19.5520    1.6040 H     287  INH287      0.1670
@<TRIPOS>BOND
     1    10     9    2
     2     2     3    1
     3     2     1    1
     4     3     4    1
     5     9     1    1
     6     9    11    1
     7     4     1    1
     8     1     5    1
     9    12    11    1
    10     5     7    1
    11     5     8    1
    12     5     6    1
