@<TRIPOS>MOLECULE
/tmp/ewbell/vina_1y1z_1y1z_lig/vina/vina3.pdbqt
 12 12 0 0 0
SMALL
GASTEIGER

@<TRIPOS>ATOM
      1  C1        30.8930   41.0330    8.4030 C.3   287  INH287      0.2070
      2  C3        29.3800   41.3850    8.4370 C.3   287  INH287      0.0500
      3  C4        29.4620   41.8610    7.0110 C.3   287  INH287      0.0060
      4  C5        30.8540   41.2320    6.8590 C.3   287  INH287      0.0500
      5  N1        31.7040   41.9830    9.1690 N.4   287  INH287     -0.0600
      6  H3        31.3220   42.0780   10.0970 H     287  INH287      0.2750
      7  H2        32.6510   41.6450    9.2280 H     287  INH287      0.2750
      8  H1        31.6940   42.8800    8.7090 H     287  INH287      0.2750
      9  C2        31.2190   39.6420    8.9240 C.2   287  INH287      0.1770
     10  O1        30.2080   39.0960    9.5310 O.2   287  INH287     -0.6480
     11  O2        32.2760   39.1290    8.7650 O.3   287  INH287     -0.7750
     12  H         32.3630   38.2000    8.8480 H     287  INH287      0.1670
@<TRIPOS>BOND
     1     4     3    1
     2     4     1    1
     3     3     2    1
     4     1     2    1
     5     1     9    1
     6     1     5    1
     7     8     5    1
     8    11    12    1
     9    11     9    1
    10     9    10    2
    11     5     7    1
    12     5     6    1
