@<TRIPOS>MOLECULE
./ligand/3c2f_lig.pdb
 30 30 0 0 0
SMALL
GASTEIGER

@<TRIPOS>ATOM
      1  C1        26.5970  -14.9160   44.8780 C.3   1639  INH1639     0.1946
      2  C2        26.5310  -16.2310   44.1890 C.3   1639  INH1639     0.1345
      3  C3        27.1200  -15.8080   42.8930 C.3   1639  INH1639     0.1141
      4  C4        28.3290  -15.0710   43.3870 C.3   1639  INH1639     0.1139
      5  C5        28.9310  -14.1700   42.3660 C.3   1639  INH1639     0.0880
      6  O1        26.6820  -15.2160   46.2470 O.3   1639  INH1639    -0.2944
      7  O2        27.4640  -17.0060   44.9050 O.3   1639  INH1639    -0.3841
      8  O3        27.3920  -16.9790   42.1370 O.3   1639  INH1639    -0.3864
      9  O4        27.7660  -14.2910   44.3940 O.3   1639  INH1639    -0.3402
     10  O5        30.1340  -13.6660   42.8690 O.3   1639  INH1639    -0.2809
     11  P1        30.7660  -12.3470   42.3340 P.3   1639  INH1639     0.5320
     12  O6        29.8540  -11.2580   42.5240 O.3   1639  INH1639    -0.1145
     13  O7        31.8320  -12.2400   43.2740 O.3   1639  INH1639    -0.1145
     14  O8        31.1140  -12.7350   40.9880 O.2   1639  INH1639    -0.2224
     15  P2        25.7910  -14.3490   47.2120 P.3   1639  INH1639     0.2246
     16  O9        25.1360  -13.3750   46.3210 O.2   1639  INH1639    -0.5169
     17  O10       24.9390  -15.2630   47.9850 O.3   1639  INH1639    -0.4370
     18  O11       27.0470  -13.7300   48.3130 O.3   1639  INH1639    -0.2260
     19  P3        27.7510  -12.1520   47.8570 P.3   1639  INH1639     0.5373
     20  O12       26.6800  -11.1230   47.8450 O.3   1639  INH1639    -0.1143
     21  O13       28.4720  -12.3180   46.6040 O.2   1639  INH1639    -0.2221
     22  O14       28.6610  -12.0220   49.0140 O.3   1639  INH1639    -0.1143
     23  H1        25.7120  -14.2960   44.6710 H     1639  INH1639     0.0941
     24  H2        25.5350  -16.6930   44.1140 H     1639  INH1639     0.0671
     25  H3        26.4560  -15.1440   42.3200 H     1639  INH1639     0.0648
     26  H4        29.0920  -15.7640   43.7710 H     1639  INH1639     0.0647
     27  H5        28.2420  -13.3400   42.1520 H     1639  INH1639     0.0592
     28  H6        29.1230  -14.7340   41.4410 H     1639  INH1639     0.0592
     29  H7        27.0830  -17.2740   45.7330 H     1639  INH1639     0.2101
     30  H8        26.5740  -17.3790   41.8670 H     1639  INH1639     0.2100
@<TRIPOS>BOND
     1    14    11    2
     2    28     5    1
     3    30     8    1
     4     8     3    1
     5    27     5    1
     6    25     3    1
     7    11    12    1
     8    11    10    1
     9    11    13    1
    10     5    10    1
    11     5     4    1
    12     3     4    1
    13     3     2    1
    14     4    26    1
    15     4     9    1
    16    24     2    1
    17     2     1    1
    18     2     7    1
    19     9     1    1
    20    23     1    1
    21     1     6    1
    22     7    29    1
    23     6    15    1
    24    16    15    2
    25    21    19    2
    26    15    17    1
    27    15    18    1
    28    20    19    1
    29    19    18    1
    30    19    22    1
