@<TRIPOS>MOLECULE
/tmp/ewbell/vina_3c2f_3c2f_lig/vina/vina1.pdbqt
 29 29 0 0 0
SMALL
GASTEIGER

@<TRIPOS>ATOM
      1  C1        21.6890  -15.1510   47.2140 C.3   1639  INH1639     0.3030
      2  C2        22.5810  -14.0380   46.7970 C.3   1639  INH1639     0.2050
      3  C3        23.4090  -14.7960   45.8260 C.3   1639  INH1639     0.1820
      4  C4        22.3270  -15.4730   45.0380 C.3   1639  INH1639     0.1800
      5  O4        21.5160  -15.9510   46.0640 O.3   1639  INH1639    -0.3480
      6  O1        20.4930  -14.5390   47.6220 O.3   1639  INH1639    -0.2630
      7  P2        19.6780  -15.2750   48.7490 P.3   1639  INH1639     0.4040
      8  O9        20.6910  -15.6220   49.7610 O.2   1639  INH1639    -0.6310
      9  O10       18.5680  -14.3990   49.1510 O.3   1639  INH1639    -0.3070
     10  H         18.0590  -14.1420   48.3660 H     1639  INH1639     0.2220
     11  O11       18.9840  -16.6130   47.7990 O.3   1639  INH1639    -0.1950
     12  P3        17.5670  -17.4160   48.5340 P.3   1639  INH1639     0.3990
     13  O13       16.3990  -16.5760   48.3130 O.2   1639  INH1639    -0.6310
     14  O12       17.4630  -18.8010   48.0120 O.3   1639  INH1639    -0.3070
     15  H         17.6950  -18.8100   47.0700 H     1639  INH1639     0.2220
     16  O14       18.0390  -17.3620   49.9340 O.3   1639  INH1639    -0.3070
     17  H         18.1260  -18.2640   50.2810 H     1639  INH1639     0.2220
     18  O2        21.7040  -13.1780   46.1060 O.3   1639  INH1639    -0.3880
     19  H7        20.9430  -13.0020   46.6470 H     1639  INH1639     0.2100
     20  O3        24.1920  -13.8610   45.0990 O.3   1639  INH1639    -0.3900
     21  H8        24.1710  -13.0200   45.5400 H     1639  INH1639     0.2100
     22  C5        22.8140  -16.6300   44.2370 C.3   1639  INH1639     0.2150
     23  O5        23.6970  -16.1580   43.2620 O.3   1639  INH1639    -0.2940
     24  P1        23.1960  -15.5770   41.9050 P.3   1639  INH1639     0.3900
     25  O8        23.4360  -14.1680   42.1030 O.2   1639  INH1639    -0.6320
     26  O6        23.8530  -16.2440   40.8190 O.3   1639  INH1639    -0.3070
     27  H         24.3040  -15.5880   40.2640 H     1639  INH1639     0.2220
     28  O7        21.8440  -16.0240   41.9840 O.3   1639  INH1639    -0.3070
     29  H         21.7140  -16.7670   41.3750 H     1639  INH1639     0.2220
@<TRIPOS>BOND
     1    27    26    1
     2    26    24    1
     3    29    28    1
     4    24    28    1
     5    24    25    2
     6    24    23    1
     7    23    22    1
     8    22     4    1
     9     4     3    1
    10     4     5    1
    11    20    21    1
    12    20     3    1
    13     3     2    1
    14     5     1    1
    15    18    19    1
    16    18     2    1
    17     2     1    1
    18    15    14    1
    19     1     6    1
    20     6     7    1
    21    11    12    1
    22    11     7    1
    23    14    12    1
    24    13    12    2
    25    10     9    1
    26    12    16    1
    27     7     9    1
    28     7     8    2
    29    16    17    1
