@<TRIPOS>MOLECULE
/tmp/ewbell/vina_3c2f_3c2f_lig/vina/vina5.pdbqt
 29 29 0 0 0
SMALL
GASTEIGER

@<TRIPOS>ATOM
      1  C1        33.1090   -8.9180   40.4000 C.3   1639  INH1639     0.3030
      2  C2        34.2020   -9.1050   41.3900 C.3   1639  INH1639     0.2050
      3  C3        33.8150  -10.4590   41.8620 C.3   1639  INH1639     0.1820
      4  C4        33.6200  -11.1460   40.5430 C.3   1639  INH1639     0.1800
      5  O4        32.8560  -10.1990   39.8650 O.3   1639  INH1639    -0.3480
      6  O1        33.6240   -8.0330   39.4390 O.3   1639  INH1639    -0.2630
      7  P2        32.7440   -6.7720   39.1050 P.3   1639  INH1639     0.4040
      8  O9        33.2580   -6.3070   37.8040 O.2   1639  INH1639    -0.6310
      9  O10       31.3320   -7.1680   39.1910 O.3   1639  INH1639    -0.3070
     10  H         30.7860   -6.3840   39.3640 H     1639  INH1639     0.2220
     11  O11       33.1030   -5.7640   40.5290 O.3   1639  INH1639    -0.1950
     12  P3        31.8580   -4.5480   40.9370 P.3   1639  INH1639     0.3990
     13  O13       31.7400   -3.6220   39.8210 O.2   1639  INH1639    -0.6310
     14  O12       30.6050   -5.2420   41.3250 O.3   1639  INH1639    -0.3070
     15  H         30.7550   -6.2000   41.3350 H     1639  INH1639     0.2220
     16  O14       32.5650   -3.9490   42.0890 O.3   1639  INH1639    -0.3070
     17  H         32.2500   -3.0420   42.2260 H     1639  INH1639     0.2220
     18  O2        35.3480   -9.1950   40.5760 O.3   1639  INH1639    -0.3880
     19  H7        35.6180  -10.1040   40.5090 H     1639  INH1639     0.2100
     20  O3        34.8800  -10.9630   42.6550 O.3   1639  INH1639    -0.3900
     21  H8        34.5730  -11.7060   43.1610 H     1639  INH1639     0.2100
     22  C5        32.8350  -12.4080   40.6440 C.3   1639  INH1639     0.2150
     23  O5        31.5680  -12.1060   41.1510 O.3   1639  INH1639    -0.2940
     24  P1        30.7590  -13.1220   42.0110 P.3   1639  INH1639     0.3900
     25  O8        29.4360  -12.5510   41.9400 O.2   1639  INH1639    -0.6320
     26  O6        30.9650  -14.4510   41.5150 O.3   1639  INH1639    -0.3070
     27  H         31.7240  -14.8500   41.9680 H     1639  INH1639     0.2220
     28  O7        31.4720  -12.9590   43.2350 O.3   1639  INH1639    -0.3070
     29  H         31.3800  -13.7620   43.7720 H     1639  INH1639     0.2220
@<TRIPOS>BOND
     1     8     7    2
     2     7     9    1
     3     7     6    1
     4     7    11    1
     5     9    10    1
     6     6     1    1
     7    13    12    2
     8     5     1    1
     9     5     4    1
    10     1     2    1
    11    19    18    1
    12    11    12    1
    13     4    22    1
    14     4     3    1
    15    18     2    1
    16    22    23    1
    17    12    14    1
    18    12    16    1
    19    23    24    1
    20    14    15    1
    21     2     3    1
    22    26    27    1
    23    26    24    1
    24     3    20    1
    25    25    24    2
    26    24    28    1
    27    16    17    1
    28    20    21    1
    29    28    29    1
