@<TRIPOS>MOLECULE
/tmp/ewbell/vina_3c2f_3c2f_lig/vina/vina4.pdbqt
 29 29 0 0 0
SMALL
GASTEIGER

@<TRIPOS>ATOM
      1  C1        25.4960  -16.6140   45.1370 C.3   1639  INH1639     0.3030
      2  C2        26.4290  -17.6950   44.7280 C.3   1639  INH1639     0.2050
      3  C3        25.9390  -17.8680   43.3370 C.3   1639  INH1639     0.1820
      4  C4        25.9150  -16.4360   42.8920 C.3   1639  INH1639     0.1800
      5  O4        25.2850  -15.8350   43.9790 O.3   1639  INH1639    -0.3480
      6  O1        26.1690  -15.9000   46.1420 O.3   1639  INH1639    -0.2630
      7  P2        25.3400  -14.7920   46.8910 P.3   1639  INH1639     0.4040
      8  O9        26.1050  -14.5400   48.1250 O.2   1639  INH1639    -0.6310
      9  O10       25.1350  -13.6730   45.9610 O.3   1639  INH1639    -0.3070
     10  H         25.9060  -13.0850   45.9880 H     1639  INH1639     0.2220
     11  O11       23.7810  -15.6390   47.0570 O.3   1639  INH1639    -0.1950
     12  P3        22.3410  -14.6830   46.6020 P.3   1639  INH1639     0.3990
     13  O13       21.1610  -15.3610   47.1150 O.2   1639  INH1639    -0.6310
     14  O12       22.5190  -13.2810   47.0570 O.3   1639  INH1639    -0.3070
     15  H         21.7080  -12.9770   47.4920 H     1639  INH1639     0.2220
     16  O14       22.4830  -14.8360   45.1380 O.3   1639  INH1639    -0.3070
     17  H         21.6740  -14.5250   44.7010 H     1639  INH1639     0.2220
     18  O2        27.6770  -17.0430   44.7150 O.3   1639  INH1639    -0.3880
     19  H7        28.2470  -17.4370   45.3650 H     1639  INH1639     0.2100
     20  O3        26.8630  -18.6990   42.6510 O.3   1639  INH1639    -0.3900
     21  H8        26.5610  -18.8440   41.7620 H     1639  INH1639     0.2100
     22  C5        25.0880  -16.2080   41.6750 C.3   1639  INH1639     0.2150
     23  O5        23.8010  -16.7010   41.9110 O.3   1639  INH1639    -0.2940
     24  P1        22.5310  -15.8190   41.7260 P.3   1639  INH1639     0.3900
     25  O8        22.2770  -15.9940   40.3170 O.2   1639  INH1639    -0.6320
     26  O6        21.5220  -16.2160   42.6640 O.3   1639  INH1639    -0.3070
     27  H         21.7760  -15.9230   43.5540 H     1639  INH1639     0.2220
     28  O7        23.0920  -14.5740   42.1350 O.3   1639  INH1639    -0.3070
     29  H         23.8060  -14.7350   42.7720 H     1639  INH1639     0.2220
@<TRIPOS>BOND
     1    25    24    2
     2    22    23    1
     3    22     4    1
     4    24    23    1
     5    24    28    1
     6    24    26    1
     7    21    20    1
     8    28    29    1
     9    20     3    1
    10    26    27    1
    11     4     3    1
    12     4     5    1
    13     3     2    1
    14     5     1    1
    15    17    16    1
    16    18     2    1
    17    18    19    1
    18     2     1    1
    19     1     6    1
    20    16    12    1
    21     9    10    1
    22     9     7    1
    23     6     7    1
    24    12    14    1
    25    12    11    1
    26    12    13    2
    27     7    11    1
    28     7     8    2
    29    14    15    1
