@<TRIPOS>MOLECULE
/tmp/ewbell/vina_3c2f_3c2f_lig/vina/vina3.pdbqt
 29 29 0 0 0
SMALL
GASTEIGER

@<TRIPOS>ATOM
      1  C1        32.8320   -7.5670   40.9410 C.3   1639  INH1639     0.3030
      2  C2        31.9240   -6.4460   40.5870 C.3   1639  INH1639     0.2050
      3  C3        32.8790   -5.6670   39.7590 C.3   1639  INH1639     0.1820
      4  C4        33.4050   -6.7590   38.8760 C.3   1639  INH1639     0.1800
      5  O4        33.6630   -7.7540   39.8160 O.3   1639  INH1639    -0.3480
      6  O1        31.9930   -8.6690   41.1720 O.3   1639  INH1639    -0.2630
      7  P2        32.0470   -9.3020   42.6110 P.3   1639  INH1639     0.4040
      8  O9        33.3290   -8.8330   43.1660 O.2   1639  INH1639    -0.6310
      9  O10       30.8110   -8.9340   43.3160 O.3   1639  INH1639    -0.3070
     10  H         30.4580   -8.1120   42.9400 H     1639  INH1639     0.2220
     11  O11       31.9260  -11.0290   42.1890 O.3   1639  INH1639    -0.1950
     12  P3        32.9550  -11.5550   40.8260 P.3   1639  INH1639     0.3990
     13  O13       32.8420  -13.0000   40.6990 O.2   1639  INH1639    -0.6310
     14  O12       32.5960  -10.7790   39.6130 O.3   1639  INH1639    -0.3070
     15  H         31.6340  -10.7990   39.4890 H     1639  INH1639     0.2220
     16  O14       34.2490  -11.1430   41.4110 O.3   1639  INH1639    -0.3070
     17  H         34.9110  -11.0620   40.7070 H     1639  INH1639     0.2220
     18  O2        30.9710   -7.0670   39.7560 O.3   1639  INH1639    -0.3880
     19  H7        30.5330   -7.7580   40.2390 H     1639  INH1639     0.2100
     20  O3        32.1470   -4.6500   39.0920 O.3   1639  INH1639    -0.3900
     21  H8        31.4510   -4.3380   39.6580 H     1639  INH1639     0.2100
     22  C5        34.6800   -6.4060   38.1930 C.3   1639  INH1639     0.2150
     23  O5        34.4740   -5.2530   37.4300 O.3   1639  INH1639    -0.2940
     24  P1        34.0740   -5.3180   35.9260 P.3   1639  INH1639     0.3900
     25  O8        34.6180   -4.0730   35.4420 O.2   1639  INH1639    -0.6320
     26  O6        34.5410   -6.5460   35.3520 O.3   1639  INH1639    -0.3070
     27  H         35.1870   -6.9550   35.9480 H     1639  INH1639     0.2220
     28  O7        32.6600   -5.3860   36.0990 O.3   1639  INH1639    -0.3070
     29  H         32.3080   -4.4920   36.2300 H     1639  INH1639     0.2220
@<TRIPOS>BOND
     1    26    24    1
     2    26    27    1
     3    25    24    2
     4    24    28    1
     5    24    23    1
     6    28    29    1
     7    23    22    1
     8    22     4    1
     9     4     3    1
    10     4     5    1
    11    20    21    1
    12    20     3    1
    13    15    14    1
    14    14    12    1
    15    18    19    1
    16    18     2    1
    17     3     2    1
    18     5     1    1
    19     2     1    1
    20    13    12    2
    21    17    16    1
    22    12    16    1
    23    12    11    1
    24     1     6    1
    25     6     7    1
    26    11     7    1
    27     7     8    2
    28     7     9    1
    29    10     9    1
