@<TRIPOS>MOLECULE
/tmp/ewbell/vina_3c2f_3c2f_lig/vina/vina2.pdbqt
 29 29 0 0 0
SMALL
GASTEIGER

@<TRIPOS>ATOM
      1  C1        20.4400  -15.1350   47.2560 C.3   1639  INH1639     0.3030
      2  C2        19.6250  -14.8520   48.4670 C.3   1639  INH1639     0.2050
      3  C3        18.4020  -15.5890   48.0610 C.3   1639  INH1639     0.1820
      4  C4        19.0140  -16.8880   47.6280 C.3   1639  INH1639     0.1800
      5  O4        20.0670  -16.4310   46.8400 O.3   1639  INH1639    -0.3480
      6  O1        21.7760  -15.0770   47.6840 O.3   1639  INH1639    -0.2630
      7  P2        22.7910  -14.3600   46.7190 P.3   1639  INH1639     0.4040
      8  O9        21.9570  -13.4180   45.9510 O.2   1639  INH1639    -0.6310
      9  O10       23.8830  -13.8120   47.5350 O.3   1639  INH1639    -0.3070
     10  H         23.9640  -12.8590   47.3700 H     1639  INH1639     0.2220
     11  O11       23.4340  -15.7740   45.8480 O.3   1639  INH1639    -0.1950
     12  P3        22.9010  -15.9320   44.1490 P.3   1639  INH1639     0.3990
     13  O13       23.5990  -17.0600   43.5530 O.2   1639  INH1639    -0.6310
     14  O12       21.4180  -16.0050   44.1060 O.3   1639  INH1639    -0.3070
     15  H         21.1060  -15.7220   43.2330 H     1639  INH1639     0.2220
     16  O14       23.4260  -14.6340   43.6770 O.3   1639  INH1639    -0.3070
     17  H         23.5930  -14.6810   42.7220 H     1639  INH1639     0.2220
     18  O2        20.3010  -15.5700   49.4720 O.3   1639  INH1639    -0.3880
     19  H7        21.2360  -15.5470   49.3030 H     1639  INH1639     0.2100
     20  O3        17.5480  -15.6700   49.1930 O.3   1639  INH1639    -0.3900
     21  H8        18.0200  -16.0640   49.9180 H     1639  INH1639     0.2100
     22  C5        18.1100  -17.7160   46.7830 C.3   1639  INH1639     0.2150
     23  O5        16.7890  -17.3360   47.0380 O.3   1639  INH1639    -0.2940
     24  P1        15.7290  -18.3440   47.5740 P.3   1639  INH1639     0.3900
     25  O8        15.2860  -17.6690   48.7700 O.2   1639  INH1639    -0.6320
     26  O6        14.7690  -18.6320   46.5480 O.3   1639  INH1639    -0.3070
     27  H         14.6970  -19.5930   46.4350 H     1639  INH1639     0.2220
     28  O7        16.5900  -19.4680   47.7440 O.3   1639  INH1639    -0.3070
     29  H         16.9140  -19.4910   48.6570 H     1639  INH1639     0.2220
@<TRIPOS>BOND
     1    17    16    1
     2    15    14    1
     3    13    12    2
     4    16    12    1
     5    14    12    1
     6    12    11    1
     7    11     7    1
     8     8     7    2
     9    27    26    1
    10    26    24    1
    11     7     9    1
    12     7     6    1
    13    22    23    1
    14    22     4    1
    15     5     1    1
    16     5     4    1
    17    23    24    1
    18     1     6    1
    19     1     2    1
    20    10     9    1
    21    24    28    1
    22    24    25    2
    23     4     3    1
    24    28    29    1
    25     3     2    1
    26     3    20    1
    27     2    18    1
    28    20    21    1
    29    19    18    1
