@<TRIPOS>MOLECULE
/tmp/ewbell/vina_2p16_2p16_lig/vina/vina2.pdbqt
 37 41 0 0 0
SMALL
GASTEIGER

@<TRIPOS>ATOM
      1  N1         7.2690   45.5990   64.7000 N.pl3 292  INH292     -0.2870
      2  H1         7.1940   45.4880   65.7110 H     292  INH292      0.1880
      3  C5         6.0640   45.8170   61.3040 C.2   292  INH292      0.2770
      4  C6         8.4230   45.7870   64.0380 C.2   292  INH292      0.1250
      5  C8         8.0640   45.8800   62.6930 C.2   292  INH292      0.0110
      6  C9         6.6920   45.7460   62.5580 C.3   292  INH292      0.1330
      7  C17        8.1520   46.8800   60.4770 C.3   292  INH292      0.1370
      8  N2         6.2010   45.5770   63.8300 N.pl3 292  INH292     -0.2500
      9  N3         6.7900   46.3390   60.2310 N.am  292  INH292     -0.3120
     10  O2         4.9020   45.4230   61.2010 O.2   292  INH292     -0.2650
     11  C25        8.9610   46.0920   61.5060 C.3   292  INH292      0.0640
     12  C4         6.2160   46.4820   58.9650 C.ar  292  INH292      0.0370
     13  C21        6.0590   47.8290   58.3960 C.ar  292  INH292      0.0320
     14  C10        5.5710   47.9560   57.0410 C.ar  292  INH292      0.0320
     15  C12        5.2250   46.7300   56.3160 C.ar  292  INH292      0.0370
     16  C22        5.3430   45.3860   56.8870 C.ar  292  INH292      0.0320
     17  C16        5.8570   45.2600   58.2320 C.ar  292  INH292      0.0320
     18  N4         4.7510   46.8290   55.0350 N.am  292  INH292     -0.3180
     19  C13        5.6450   46.9470   54.0150 C.2   292  INH292      0.2240
     20  C24        5.1260   47.0780   52.5940 C.3   292  INH292      0.1030
     21  O3         6.8620   46.9820   54.1940 O.2   292  INH292     -0.2730
     22  C23        3.7190   46.5230   52.4180 C.3   292  INH292      0.0110
     23  C15        2.8250   47.1950   53.4370 C.3   292  INH292      0.0210
     24  C14        3.2870   46.7480   54.8120 C.3   292  INH292      0.1320
     25  C18        4.8600   45.4850   64.2680 C.ar  292  INH292      0.0570
     26  C3         4.1050   44.2270   64.1170 C.ar  292  INH292      0.0340
     27  C2         2.7070   44.1670   64.5690 C.ar  292  INH292      0.0390
     28  C1         2.0890   45.3620   65.1580 C.ar  292  INH292      0.0680
     29  C20        2.8500   46.6120   65.3160 C.ar  292  INH292      0.0390
     30  C19        4.2380   46.6710   64.8700 C.ar  292  INH292      0.0340
     31  O1         0.7480   45.2230   65.5360 O.3   292  INH292     -0.3560
     32  C11       -0.2200   46.2690   65.4510 C.3   292  INH292      0.2100
     33  C7         9.6950   45.9380   64.6140 C.2   292  INH292      0.2680
     34  N5        10.2780   47.1300   64.3730 N.am  292  INH292     -0.3650
     35  H23        9.8040   47.8180   63.8260 H     292  INH292      0.1590
     36  H22       11.1870   47.3260   64.7450 H     292  INH292      0.1590
     37  O4        10.2400   45.0400   65.2610 O.2   292  INH292     -0.2660
@<TRIPOS>BOND
     1    22    20    1
     2    22    23    1
     3    20    19    1
     4    23    24    1
     5    19    21    2
     6    19    18   am
     7    24    18    1
     8    18    15    1
     9    15    16   ar
    10    15    14   ar
    11    16    17   ar
    12    14    13   ar
    13    17    12   ar
    14    13    12   ar
    15    12     9    1
    16     9     7    1
    17     9     3   am
    18     7    11    1
    19    10     3    2
    20     3     6    1
    21    11     5    1
    22     6     5    1
    23     6     8    1
    24     5     4    2
    25    35    34    1
    26     8    25    1
    27     8     1    1
    28     4    33    1
    29     4     1    1
    30    26    25   ar
    31    26    27   ar
    32    25    30   ar
    33    34    33   am
    34    34    36    1
    35    27    28   ar
    36    33    37    2
    37     1     2    1
    38    30    29   ar
    39    28    29   ar
    40    28    31    1
    41    32    31    1
