@<TRIPOS>MOLECULE
/tmp/ewbell/vina_2p16_2p16_lig/vina/vina4.pdbqt
 37 41 0 0 0
SMALL
GASTEIGER

@<TRIPOS>ATOM
      1  N1         6.7470   46.0290   64.2500 N.pl3 292  INH292     -0.2870
      2  H1         6.6410   46.2680   65.2370 H     292  INH292      0.1880
      3  C5         5.6460   45.0910   60.9430 C.2   292  INH292      0.2770
      4  C6         7.9230   45.9760   63.6030 C.2   292  INH292      0.1250
      5  C8         7.6050   45.6100   62.2940 C.2   292  INH292      0.0110
      6  C9         6.2350   45.4460   62.1680 C.3   292  INH292      0.1330
      7  C17        7.7750   45.8000   59.8750 C.3   292  INH292      0.1370
      8  N2         5.7050   45.7200   63.4050 N.pl3 292  INH292     -0.2500
      9  N3         6.4110   45.2160   59.7820 N.am  292  INH292     -0.3120
     10  O2         4.4810   44.6920   60.9410 O.2   292  INH292     -0.2650
     11  C25        8.5390   45.4020   61.1360 C.3   292  INH292      0.0640
     12  C4         5.8760   44.9250   58.5240 C.ar  292  INH292      0.0370
     13  C21        5.2410   46.0010   57.7470 C.ar  292  INH292      0.0320
     14  C10        4.7960   45.7150   56.4020 C.ar  292  INH292      0.0320
     15  C12        4.9730   44.3510   55.8940 C.ar  292  INH292      0.0370
     16  C22        5.5710   43.2630   56.6720 C.ar  292  INH292      0.0320
     17  C16        6.0390   43.5590   58.0070 C.ar  292  INH292      0.0320
     18  N4         4.5480   44.0560   54.6260 N.am  292  INH292     -0.3180
     19  C13        5.3790   44.3210   53.5800 C.2   292  INH292      0.2240
     20  C24        4.9070   44.0150   52.1700 C.3   292  INH292      0.1030
     21  O3         6.4920   44.8260   53.7230 O.2   292  INH292     -0.2730
     22  C23        3.8060   42.9650   52.1230 C.3   292  INH292      0.0110
     23  C15        2.6880   43.4240   53.0330 C.3   292  INH292      0.0210
     24  C14        3.2230   43.4110   54.4530 C.3   292  INH292      0.1320
     25  C18        4.3500   45.7900   63.8040 C.ar  292  INH292      0.0570
     26  C3         3.5140   46.9420   63.4210 C.ar  292  INH292      0.0340
     27  C2         2.1110   46.9930   63.8630 C.ar  292  INH292      0.0390
     28  C1         1.5750   45.8990   64.6810 C.ar  292  INH292      0.0680
     29  C20        2.4120   44.7460   65.0530 C.ar  292  INH292      0.0390
     30  C19        3.8020   44.6930   64.6120 C.ar  292  INH292      0.0340
     31  O1         0.2400   46.0420   65.0800 O.3   292  INH292     -0.3560
     32  C11       -0.6780   46.9600   64.4870 C.3   292  INH292      0.2100
     33  C7         9.1800   46.3050   64.1350 C.2   292  INH292      0.2680
     34  N5         9.6260   45.4510   65.0800 N.am  292  INH292     -0.3650
     35  H23        9.0710   44.6630   65.3440 H     292  INH292      0.1590
     36  H22       10.5130   45.6070   65.5150 H     292  INH292      0.1590
     37  O4         9.8060   47.3080   63.7840 O.2   292  INH292     -0.2660
@<TRIPOS>BOND
     1    22    20    1
     2    22    23    1
     3    20    19    1
     4    23    24    1
     5    19    21    2
     6    19    18   am
     7    24    18    1
     8    18    15    1
     9    15    14   ar
    10    15    16   ar
    11    14    13   ar
    12    16    17   ar
    13    13    12   ar
    14    17    12   ar
    15    12     9    1
    16     9     7    1
    17     9     3   am
    18     7    11    1
    19    10     3    2
    20     3     6    1
    21    11     5    1
    22     6     5    1
    23     6     8    1
    24     5     4    2
    25     8    25    1
    26     8     1    1
    27    26    25   ar
    28    26    27   ar
    29     4    33    1
    30     4     1    1
    31    37    33    2
    32    25    30   ar
    33    27    28   ar
    34    33    34   am
    35     1     2    1
    36    32    31    1
    37    30    29   ar
    38    28    29   ar
    39    28    31    1
    40    34    35    1
    41    34    36    1
