@<TRIPOS>MOLECULE
/tmp/ewbell/vina_2p16_2p16_lig/vina/vina5.pdbqt
 37 41 0 0 0
SMALL
GASTEIGER

@<TRIPOS>ATOM
      1  N1         8.1080   44.6600   59.6320 N.pl3 292  INH292     -0.2870
      2  H1         8.9510   44.6810   59.0580 H     292  INH292      0.1880
      3  C5         4.9150   43.4130   60.7630 C.2   292  INH292      0.2770
      4  C6         7.8310   45.5380   60.6100 C.2   292  INH292      0.1250
      5  C8         6.5930   45.1420   61.1180 C.2   292  INH292      0.0110
      6  C9         6.1360   44.0260   60.4370 C.3   292  INH292      0.1330
      7  C17        5.0330   44.6450   62.9170 C.3   292  INH292      0.1370
      8  N2         7.1030   43.7260   59.5080 N.pl3 292  INH292     -0.2500
      9  N3         4.3160   43.7400   61.9810 N.am  292  INH292     -0.3120
     10  O2         4.4260   42.6090   59.9680 O.2   292  INH292     -0.2650
     11  C25        5.8020   45.7720   62.2300 C.3   292  INH292      0.0640
     12  C4         3.1250   43.1360   62.3920 C.ar  292  INH292      0.0370
     13  C21        1.8440   43.7890   62.0810 C.ar  292  INH292      0.0320
     14  C10        0.6170   43.0990   62.4090 C.ar  292  INH292      0.0320
     15  C12        0.7170   41.7930   63.0680 C.ar  292  INH292      0.0370
     16  C22        1.9870   41.1500   63.4140 C.ar  292  INH292      0.0320
     17  C16        3.2120   41.8300   63.0610 C.ar  292  INH292      0.0320
     18  N4        -0.4340   41.1270   63.3970 N.am  292  INH292     -0.3180
     19  C13       -1.0810   41.4690   64.5470 C.2   292  INH292      0.2240
     20  C24       -2.3460   40.7230   64.9290 C.3   292  INH292      0.1030
     21  O3        -0.6680   42.3420   65.3100 O.2   292  INH292     -0.2730
     22  C23       -3.0360   40.0680   63.7400 C.3   292  INH292      0.0110
     23  C15       -2.0220   39.1910   63.0400 C.3   292  INH292      0.0210
     24  C14       -0.9550   40.1020   62.4600 C.3   292  INH292      0.1320
     25  C18        7.1810   42.6310   58.6180 C.ar  292  INH292      0.0570
     26  C3         6.3000   42.5600   57.4370 C.ar  292  INH292      0.0340
     27  C2         6.3960   41.4000   56.5370 C.ar  292  INH292      0.0390
     28  C1         7.3620   40.3360   56.8340 C.ar  292  INH292      0.0680
     29  C20        8.2460   40.4170   58.0080 C.ar  292  INH292      0.0390
     30  C19        8.1540   41.5680   58.9000 C.ar  292  INH292      0.0340
     31  O1         7.3660   39.2590   55.9390 O.3   292  INH292     -0.3560
     32  C11        8.5360   38.5280   55.5730 C.3   292  INH292      0.2100
     33  C7         8.6660   46.5740   61.0580 C.2   292  INH292      0.2680
     34  N5         8.6410   47.6830   60.2900 N.am  292  INH292     -0.3650
     35  H23        8.0580   47.7160   59.4790 H     292  INH292      0.1590
     36  H22        9.2050   48.4720   60.5340 H     292  INH292      0.1590
     37  O4         9.3830   46.4620   62.0560 O.2   292  INH292     -0.2660
@<TRIPOS>BOND
     1    32    31    1
     2    31    28    1
     3    27    28   ar
     4    27    26   ar
     5    28    29   ar
     6    26    25   ar
     7    29    30   ar
     8    25    30   ar
     9    25     8    1
    10     2     1    1
    11    35    34    1
    12     8     1    1
    13     8     6    1
    14     1     4    1
    15    10     3    2
    16    34    36    1
    17    34    33   am
    18     6     3    1
    19     6     5    1
    20     4    33    1
    21     4     5    2
    22     3     9   am
    23    33    37    2
    24     5    11    1
    25     9    12    1
    26     9     7    1
    27    13    12   ar
    28    13    14   ar
    29    11     7    1
    30    12    17   ar
    31    14    15   ar
    32    24    23    1
    33    24    18    1
    34    23    22    1
    35    17    16   ar
    36    15    18    1
    37    15    16   ar
    38    18    19   am
    39    22    20    1
    40    19    20    1
    41    19    21    2
