@<TRIPOS>MOLECULE
/tmp/ewbell/vina_2p16_2p16_lig/vina/vina1.pdbqt
 37 41 0 0 0
SMALL
GASTEIGER

@<TRIPOS>ATOM
      1  N1         5.6420   46.4820   64.5670 N.pl3 292  INH292     -0.2870
      2  H1         5.7720   47.0860   65.3780 H     292  INH292      0.1880
      3  C5         6.6330   44.1610   61.9860 C.2   292  INH292      0.2770
      4  C6         4.4740   46.3090   63.9260 C.2   292  INH292      0.1250
      5  C8         4.7520   45.4180   62.8890 C.2   292  INH292      0.0110
      6  C9         6.0910   45.0630   62.9160 C.3   292  INH292      0.1330
      7  C17        4.2950   43.4680   61.5080 C.3   292  INH292      0.1370
      8  N2         6.6390   45.7340   63.9820 N.pl3 292  INH292     -0.2500
      9  N3         5.7540   43.3810   61.2320 N.am  292  INH292     -0.3120
     10  O2         7.8570   44.0900   61.8760 O.2   292  INH292     -0.2650
     11  C25        3.8080   44.8740   61.8540 C.3   292  INH292      0.0640
     12  C4         6.2210   42.4310   60.3210 C.ar  292  INH292      0.0370
     13  C21        6.8630   42.8830   59.0770 C.ar  292  INH292      0.0320
     14  C10        7.4440   41.8940   58.1980 C.ar  292  INH292      0.0320
     15  C12        7.3330   40.4830   58.5800 C.ar  292  INH292      0.0370
     16  C22        6.6650   40.0190   59.7990 C.ar  292  INH292      0.0320
     17  C16        6.1080   41.0130   60.6890 C.ar  292  INH292      0.0320
     18  N4         7.8680   39.5290   57.7560 N.am  292  INH292     -0.3180
     19  C13        7.0990   39.0320   56.7470 C.2   292  INH292      0.2240
     20  C24        7.6780   37.9600   55.8410 C.3   292  INH292      0.1030
     21  O3         5.9400   39.3930   56.5510 O.2   292  INH292     -0.2730
     22  C23        9.2000   37.9550   55.8180 C.3   292  INH292      0.0110
     23  C15        9.6860   37.8450   57.2460 C.3   292  INH292      0.0210
     24  C14        9.2780   39.1190   57.9640 C.3   292  INH292      0.1320
     25  C18        7.9480   45.6580   64.5110 C.ar  292  INH292      0.0570
     26  C3         8.2520   44.7490   65.6320 C.ar  292  INH292      0.0340
     27  C2         9.6200   44.7020   66.1710 C.ar  292  INH292      0.0390
     28  C1        10.6530   45.5650   65.5860 C.ar  292  INH292      0.0680
     29  C20       10.3470   46.4640   64.4620 C.ar  292  INH292      0.0390
     30  C19        8.9910   46.5080   63.9240 C.ar  292  INH292      0.0340
     31  O1        11.9190   45.4760   66.1780 O.3   292  INH292     -0.3560
     32  C11       12.9390   44.5720   65.7550 C.3   292  INH292      0.2100
     33  C7         3.2350   46.8570   64.2950 C.2   292  INH292      0.2680
     34  N5         2.5280   46.1040   65.1630 N.am  292  INH292     -0.3650
     35  H23        2.8990   45.2360   65.4880 H     292  INH292      0.1590
     36  H22        1.6330   46.4170   65.4810 H     292  INH292      0.1590
     37  O4         2.8210   47.9260   63.8380 O.2   292  INH292     -0.2660
@<TRIPOS>BOND
     1    22    20    1
     2    22    23    1
     3    20    19    1
     4    21    19    2
     5    19    18   am
     6    23    24    1
     7    18    24    1
     8    18    15    1
     9    14    15   ar
    10    14    13   ar
    11    15    16   ar
    12    13    12   ar
    13    16    17   ar
    14    12    17   ar
    15    12     9    1
    16     9     7    1
    17     9     3   am
    18     7    11    1
    19    11     5    1
    20    10     3    2
    21     3     6    1
    22     5     6    1
    23     5     4    2
    24     6     8    1
    25    37    33    2
    26    30    29   ar
    27    30    25   ar
    28     4    33    1
    29     4     1    1
    30     8    25    1
    31     8     1    1
    32    33    34   am
    33    29    28   ar
    34    25    26   ar
    35     1     2    1
    36    34    36    1
    37    34    35    1
    38    28    27   ar
    39    28    31    1
    40    26    27   ar
    41    32    31    1
