@<TRIPOS>MOLECULE
/tmp/ewbell/vina_2p16_2p16_lig/vina/vina3.pdbqt
 37 41 0 0 0
SMALL
GASTEIGER

@<TRIPOS>ATOM
      1  N1         8.0050   44.9070   61.8430 N.pl3 292  INH292     -0.2870
      2  H1         8.9070   44.8730   61.3680 H     292  INH292      0.1880
      3  C5         4.5030   44.1830   62.3350 C.2   292  INH292      0.2770
      4  C6         7.7730   45.5680   62.9890 C.2   292  INH292      0.1250
      5  C8         6.4230   45.3540   63.2700 C.2   292  INH292      0.0110
      6  C9         5.8540   44.5630   62.2850 C.3   292  INH292      0.1330
      7  C17        4.5610   44.8110   64.7380 C.3   292  INH292      0.1370
      8  N2         6.8620   44.2820   61.3950 N.pl3 292  INH292     -0.2500
      9  N3         3.8170   44.3400   63.5400 N.am  292  INH292     -0.3120
     10  O2         3.9810   43.7240   61.3190 O.2   292  INH292     -0.2650
     11  C25        5.6260   45.8640   64.4370 C.3   292  INH292      0.0640
     12  C4         2.4850   43.9410   63.6770 C.ar  292  INH292      0.0370
     13  C21        2.1770   42.5150   63.8640 C.ar  292  INH292      0.0320
     14  C10        0.8070   42.1290   64.1180 C.ar  292  INH292      0.0320
     15  C12       -0.2110   43.1830   64.1440 C.ar  292  INH292      0.0370
     16  C22        0.0790   44.6020   63.9230 C.ar  292  INH292      0.0320
     17  C16        1.4530   44.9880   63.6950 C.ar  292  INH292      0.0320
     18  N4        -1.5170   42.8380   64.3720 N.am  292  INH292     -0.3180
     19  C13       -1.9740   42.8260   65.6550 C.2   292  INH292      0.2240
     20  C24       -3.4140   42.4240   65.9190 C.3   292  INH292      0.1030
     21  O3        -1.2620   43.0990   66.6210 O.2   292  INH292     -0.2730
     22  C23       -4.3170   42.6080   64.7070 C.3   292  INH292      0.0110
     23  C15       -3.6980   41.8560   63.5490 C.3   292  INH292      0.0210
     24  C14       -2.3880   42.5450   63.2080 C.3   292  INH292      0.1320
     25  C18        6.8460   43.4410   60.2590 C.ar  292  INH292      0.0570
     26  C3         7.3020   42.0420   60.3550 C.ar  292  INH292      0.0340
     27  C2         7.2870   41.1950   59.1520 C.ar  292  INH292      0.0390
     28  C1         6.8240   41.7620   57.8800 C.ar  292  INH292      0.0680
     29  C20        6.3610   43.1570   57.7910 C.ar  292  INH292      0.0390
     30  C19        6.3720   43.9960   58.9850 C.ar  292  INH292      0.0340
     31  O1         6.8680   40.8940   56.7810 O.3   292  INH292     -0.3560
     32  C11        7.6650   39.7110   56.7280 C.3   292  INH292      0.2100
     33  C7         8.7260   46.2510   63.7620 C.2   292  INH292      0.2680
     34  N5         9.2550   45.5230   64.7680 N.am  292  INH292     -0.3650
     35  H23        8.9600   44.5800   64.9100 H     292  INH292      0.1590
     36  H22        9.9430   45.9300   65.3700 H     292  INH292      0.1590
     37  O4         9.0310   47.4280   63.5500 O.2   292  INH292     -0.2660
@<TRIPOS>BOND
     1    32    31    1
     2    31    28    1
     3    29    28   ar
     4    29    30   ar
     5    28    27   ar
     6    30    25   ar
     7    27    26   ar
     8    25    26   ar
     9    25     8    1
    10    10     3    2
    11     2     1    1
    12     8     1    1
    13     8     6    1
    14     1     4    1
    15     6     3    1
    16     6     5    1
    17     3     9   am
    18     4     5    2
    19     4    33    1
    20    24    23    1
    21    24    18    1
    22     5    11    1
    23     9    12    1
    24     9     7    1
    25    23    22    1
    26    37    33    2
    27    12    17   ar
    28    12    13   ar
    29    17    16   ar
    30    33    34   am
    31    13    14   ar
    32    16    15   ar
    33    14    15   ar
    34    15    18    1
    35    18    19   am
    36    11     7    1
    37    22    20    1
    38    34    35    1
    39    34    36    1
    40    19    20    1
    41    19    21    2
