@<TRIPOS>MOLECULE
./ligand/1q6e_lig.pdb
 45 46 0 0 0
SMALL
GASTEIGER

@<TRIPOS>ATOM
      1  C1         1.1810   29.6250   22.0700 C.3   493  INH493      0.1884
      2  C2         1.9370   28.3340   21.7420 C.3   493  INH493      0.1341
      3  C3         3.3140   28.6960   21.1890 C.3   493  INH493      0.1141
      4  C4         3.1440   29.5620   19.9390 C.3   493  INH493      0.1119
      5  C5         2.3180   30.8070   20.2760 C.3   493  INH493      0.1130
      6  C6         1.9890   31.6350   19.0430 C.3   493  INH493      0.0730
      7  O1         2.0800   27.5400   22.9110 O.3   493  INH493     -0.3841
      8  O2         4.0330   27.5160   20.8660 O.3   493  INH493     -0.3864
      9  O3         4.4220   29.9480   19.4490 O.3   493  INH493     -0.3865
     10  O4         1.0600   30.4300   20.8940 O.3   493  INH493     -0.3405
     11  O5         1.2480   30.8840   18.0880 O.3   493  INH493     -0.3924
     12  C7         0.8160   33.2260   25.9300 C.3   493  INH493      0.1854
     13  C8        -0.2820   32.2230   25.5590 C.3   493  INH493      0.1339
     14  C9         0.3410   31.0070   24.8800 C.3   493  INH493      0.1144
     15  C10        1.1740   31.4440   23.6690 C.3   493  INH493      0.1184
     16  C11        2.2200   32.4690   24.1340 C.3   493  INH493      0.1134
     17  C12        3.0880   33.0180   23.0140 C.3   493  INH493      0.0730
     18  O6         1.6820   32.6500   26.8430 O.3   493  INH493     -0.3649
     19  O7        -0.9660   31.8060   26.7280 O.3   493  INH493     -0.3841
     20  O8        -0.6780   30.1120   24.4750 O.3   493  INH493     -0.3864
     21  O9         1.8390   30.2940   23.1130 O.3   493  INH493     -0.3401
     22  O10        1.5710   33.5970   24.7620 O.3   493  INH493     -0.3407
     23  O11        2.3080   33.7140   22.0520 O.3   493  INH493     -0.3924
     24  H1         0.1690   29.3650   22.4120 H     493  INH493      0.0938
     25  H2         1.3770   27.7650   20.9850 H     493  INH493      0.0671
     26  H3         3.8730   29.2620   21.9490 H     493  INH493      0.0648
     27  H4         2.6210   28.9810   19.1650 H     493  INH493      0.0647
     28  H5         2.8970   31.4260   20.9770 H     493  INH493      0.0647
     29  H6         2.9280   31.9730   18.5800 H     493  INH493      0.0584
     30  H7         1.3950   32.5090   19.3480 H     493  INH493      0.0584
     31  H8         2.5500   26.7430   22.6970 H     493  INH493      0.2101
     32  H9         4.8870   27.7500   20.5230 H     493  INH493      0.2100
     33  H10        4.3140   30.4850   18.6730 H     493  INH493      0.2100
     34  H11        1.7540   30.1270   17.8190 H     493  INH493      0.2095
     35  H12        0.3550   34.1230   26.3710 H     493  INH493      0.0935
     36  H13       -0.9940   32.7010   24.8700 H     493  INH493      0.0671
     37  H14        1.0000   30.4960   25.5980 H     493  INH493      0.0648
     38  H15        0.5200   31.8970   22.9090 H     493  INH493      0.0651
     39  H16        2.8730   31.9740   24.8680 H     493  INH493      0.0647
     40  H17        3.6060   32.1830   22.5200 H     493  INH493      0.0584
     41  H18        3.8300   33.7080   23.4410 H     493  INH493      0.0584
     42  H19        2.3620   33.2730   27.0720 H     493  INH493      0.2126
     43  H20       -1.3550   32.5610   27.1530 H     493  INH493      0.2101
     44  H21       -1.1870   29.8480   25.2320 H     493  INH493      0.2100
     45  H22        1.8570   34.4370   22.4720 H     493  INH493      0.2095
@<TRIPOS>BOND
     1     1    21    1
     2     1    24    1
     3     1    10    1
     4     1     2    1
     5     2    25    1
     6     2     7    1
     7     2     3    1
     8     3    26    1
     9     3     8    1
    10     3     4    1
    11     4    27    1
    12     4     9    1
    13     4     5    1
    14     5    28    1
    15     5    10    1
    16     5     6    1
    17     6    30    1
    18     6    29    1
    19     6    11    1
    20     7    31    1
    21     8    32    1
    22     9    33    1
    23    11    34    1
    24    12    35    1
    25    12    22    1
    26    12    18    1
    27    12    13    1
    28    13    36    1
    29    13    19    1
    30    13    14    1
    31    14    37    1
    32    14    20    1
    33    14    15    1
    34    15    38    1
    35    15    21    1
    36    15    16    1
    37    16    39    1
    38    16    22    1
    39    16    17    1
    40    17    41    1
    41    17    40    1
    42    17    23    1
    43    18    42    1
    44    19    43    1
    45    20    44    1
    46    23    45    1
