@<TRIPOS>MOLECULE
/tmp/ewbell/vina_1q6e_1q6e_lig/vina/vina5.pdbqt
 31 32 0 0 0
SMALL
GASTEIGER

@<TRIPOS>ATOM
      1  O9         1.6920   31.1190   24.1640 O.3   493  INH493     -0.3480
      2  C1         0.6410   30.7430   25.0140 C.3   493  INH493      0.2920
      3  O4         1.0780   29.9030   26.0860 O.3   493  INH493     -0.3480
      4  C5         2.0160   30.5200   27.0060 C.3   493  INH493      0.1790
      5  C4         1.4230   31.8040   27.5950 C.3   493  INH493      0.1800
      6  C3         0.9730   32.7350   26.4670 C.3   493  INH493      0.1830
      7  C2        -0.0280   32.0010   25.5770 C.3   493  INH493      0.2040
      8  C6         2.3470   29.4910   28.0760 C.3   493  INH493      0.1980
      9  O5         3.5880   29.7740   28.7110 O.3   493  INH493     -0.3980
     10  H11        3.4350   30.0040   29.6200 H     493  INH493      0.2090
     11  O3         2.3960   32.4630   28.3970 O.3   493  INH493     -0.3900
     12  H10        3.2650   32.2600   28.0690 H     493  INH493      0.2100
     13  O2         0.3750   33.9010   27.0110 O.3   493  INH493     -0.3900
     14  H9        -0.0470   33.6850   27.8350 H     493  INH493      0.2100
     15  O1        -0.4450   32.8500   24.5170 O.3   493  INH493     -0.3880
     16  H8        -1.3160   32.6010   24.2360 H     493  INH493      0.2100
     17  C10        1.5990   30.6970   22.7900 C.3   493  INH493      0.1870
     18  C9         2.0160   31.8570   21.8780 C.3   493  INH493      0.1830
     19  C8         2.0380   31.4020   20.4220 C.3   493  INH493      0.2040
     20  C7         2.9530   30.1800   20.2780 C.3   493  INH493      0.2880
     21  O10        2.5230   29.1260   21.1580 O.3   493  INH493     -0.3490
     22  C11        2.5490   29.5140   22.5490 C.3   493  INH493      0.1800
     23  O8         1.1190   32.9420   22.0260 O.3   493  INH493     -0.3900
     24  H21        0.7340   33.1510   21.1840 H     493  INH493      0.2100
     25  O7         2.5190   32.4590   19.6100 O.3   493  INH493     -0.3880
     26  H20        1.8250   32.7560   19.0330 H     493  INH493      0.2100
     27  O6         4.2490   30.5280   20.6140 O.3   493  INH493     -0.3690
     28  H19        4.2360   31.1350   21.3450 H     493  INH493      0.2120
     29  C12        2.2150   28.2760   23.3660 C.3   493  INH493      0.1980
     30  O11        2.9670   27.1530   22.9290 O.3   493  INH493     -0.3980
     31  H22        3.0590   27.1820   21.9830 H     493  INH493      0.2090
@<TRIPOS>BOND
     1    26    25    1
     2    25    19    1
     3    20    19    1
     4    20    27    1
     5    20    21    1
     6    19    18    1
     7    27    28    1
     8    21    22    1
     9    24    23    1
    10    18    23    1
    11    18    17    1
    12    31    30    1
    13    22    17    1
    14    22    29    1
    15    17     1    1
    16    30    29    1
    17     1     2    1
    18    16    15    1
    19    15     7    1
    20     2     7    1
    21     2     3    1
    22     7     6    1
    23     3     4    1
    24     6    13    1
    25     6     5    1
    26     4     5    1
    27     4     8    1
    28    13    14    1
    29     5    11    1
    30    12    11    1
    31     8     9    1
    32     9    10    1
