@<TRIPOS>MOLECULE
/tmp/ewbell/vina_1q6e_1q6e_lig/vina/vina3.pdbqt
 31 32 0 0 0
SMALL
GASTEIGER

@<TRIPOS>ATOM
      1  O9         1.3090   30.8810   25.4040 O.3   493  INH493     -0.3480
      2  C1         0.4420   30.3450   24.4400 C.3   493  INH493      0.2920
      3  O4         0.4540   31.0900   23.2190 O.3   493  INH493     -0.3480
      4  C5         1.7260   31.1000   22.5200 C.3   493  INH493      0.1790
      5  C4         2.1920   29.6700   22.2310 C.3   493  INH493      0.1800
      6  C3         2.2150   28.8580   23.5290 C.3   493  INH493      0.1830
      7  C2         0.8280   28.8890   24.1670 C.3   493  INH493      0.2040
      8  C6         1.5400   31.9160   21.2500 C.3   493  INH493      0.1980
      9  O5         1.6800   33.3100   21.4970 O.3   493  INH493     -0.3980
     10  H11        0.9040   33.6330   21.9400 H     493  INH493      0.2090
     11  O3         3.4930   29.6910   21.6590 O.3   493  INH493     -0.3900
     12  H10        3.9490   30.4760   21.9390 H     493  INH493      0.2100
     13  O2         2.5930   27.5180   23.2540 O.3   493  INH493     -0.3900
     14  H9         3.2010   27.5040   22.5230 H     493  INH493      0.2100
     15  O1         0.8390   28.1490   25.3800 O.3   493  INH493     -0.3880
     16  H8         0.1960   28.5100   25.9770 H     493  INH493      0.2100
     17  C10        0.7090   31.3670   26.6200 C.3   493  INH493      0.1870
     18  C9         1.5300   30.8750   27.8180 C.3   493  INH493      0.1830
     19  C8         0.9850   31.4710   29.1130 C.3   493  INH493      0.2040
     20  C7         0.9570   32.9990   29.0050 C.3   493  INH493      0.2880
     21  O10        0.1810   33.4070   27.8630 O.3   493  INH493     -0.3490
     22  C11        0.7120   32.9030   26.6180 C.3   493  INH493      0.1800
     23  O8         1.4930   29.4620   27.8900 O.3   493  INH493     -0.3900
     24  H21        0.6680   29.1860   28.2700 H     493  INH493      0.2100
     25  O7         1.8160   31.0810   30.1920 O.3   493  INH493     -0.3880
     26  H20        1.2940   30.6370   30.8500 H     493  INH493      0.2100
     27  O6         2.2460   33.4780   28.8490 O.3   493  INH493     -0.3690
     28  H19        2.4490   33.5480   27.9240 H     493  INH493      0.2120
     29  C12       -0.1090   33.5210   25.4980 C.3   493  INH493      0.1980
     30  O11        0.6840   33.7410   24.3390 O.3   493  INH493     -0.3980
     31  H22        0.3830   33.1740   23.6380 H     493  INH493      0.2090
@<TRIPOS>BOND
     1     8     9    1
     2     8     4    1
     3     9    10    1
     4    11    12    1
     5    11     5    1
     6     5     4    1
     7     5     6    1
     8     4     3    1
     9    14    13    1
    10     3     2    1
    11    13     6    1
    12     6     7    1
    13    31    30    1
    14     7     2    1
    15     7    15    1
    16    30    29    1
    17     2     1    1
    18    15    16    1
    19     1    17    1
    20    29    22    1
    21    22    17    1
    22    22    21    1
    23    17    18    1
    24    18    23    1
    25    18    19    1
    26    21    20    1
    27    23    24    1
    28    28    27    1
    29    27    20    1
    30    20    19    1
    31    19    25    1
    32    25    26    1
