@<TRIPOS>MOLECULE
/tmp/ewbell/vina_1q6e_1q6e_lig/vina/vina1.pdbqt
 31 32 0 0 0
SMALL
GASTEIGER

@<TRIPOS>ATOM
      1  O9         1.8510   30.4370   23.2090 O.3   493  INH493     -0.3480
      2  C1         1.2120   29.7180   22.1890 C.3   493  INH493      0.2920
      3  O4         1.1010   30.4680   20.9760 O.3   493  INH493     -0.3480
      4  C5         2.3660   30.8260   20.3580 C.3   493  INH493      0.1790
      5  C4         3.2040   29.5730   20.0890 C.3   493  INH493      0.1800
      6  C3         3.3630   28.7640   21.3790 C.3   493  INH493      0.1830
      7  C2         1.9800   28.4190   21.9290 C.3   493  INH493      0.2040
      8  C6         2.0480   31.5960   19.0850 C.3   493  INH493      0.1980
      9  O5         1.0880   30.9140   18.2860 O.3   493  INH493     -0.3980
     10  H11        1.2840   31.0540   17.3670 H     493  INH493      0.2090
     11  O3         4.4860   29.9450   19.5990 O.3   493  INH493     -0.3900
     12  H10        4.4040   30.7220   19.0580 H     493  INH493      0.2100
     13  O2         4.0930   27.5760   21.1190 O.3   493  INH493     -0.3900
     14  H9         4.7990   27.4940   21.7490 H     493  INH493      0.2100
     15  O1         2.1130   27.6780   23.1340 O.3   493  INH493     -0.3880
     16  H8         2.5410   26.8510   22.9520 H     493  INH493      0.2100
     17  C10        1.0970   31.4950   23.8290 C.3   493  INH493      0.1870
     18  C9         0.3620   30.9390   25.0540 C.3   493  INH493      0.1830
     19  C8        -0.3530   32.0630   25.7980 C.3   493  INH493      0.2040
     20  C7         0.6530   33.1610   26.1620 C.3   493  INH493      0.2880
     21  O10        1.3190   33.6440   24.9800 O.3   493  INH493     -0.3490
     22  C11        2.0520   32.6070   24.2900 C.3   493  INH493      0.1800
     23  O8        -0.5770   29.9570   24.6580 O.3   493  INH493     -0.3900
     24  H21       -1.4550   30.2640   24.8450 H     493  INH493      0.2100
     25  O7        -0.9420   31.5430   26.9770 O.3   493  INH493     -0.3880
     26  H20       -1.8800   31.6880   26.9520 H     493  INH493      0.2100
     27  O6         1.6090   32.6500   27.0220 O.3   493  INH493     -0.3690
     28  H19        1.4560   31.7210   27.1520 H     493  INH493      0.2120
     29  C12        2.8140   33.2770   23.1570 C.3   493  INH493      0.1980
     30  O11        1.9850   33.4620   22.0180 O.3   493  INH493     -0.3980
     31  H22        1.2790   32.8260   22.0330 H     493  INH493      0.2090
@<TRIPOS>BOND
     1    10     9    1
     2     9     8    1
     3    12    11    1
     4     8     4    1
     5    11     5    1
     6     5     4    1
     7     5     6    1
     8     4     3    1
     9     3     2    1
    10    13     6    1
    11    13    14    1
    12     6     7    1
    13     7     2    1
    14     7    15    1
    15    30    31    1
    16    30    29    1
    17     2     1    1
    18    16    15    1
    19    29    22    1
    20     1    17    1
    21    17    22    1
    22    17    18    1
    23    22    21    1
    24    23    24    1
    25    23    18    1
    26    21    20    1
    27    18    19    1
    28    19    20    1
    29    19    25    1
    30    20    27    1
    31    26    25    1
    32    27    28    1
