@<TRIPOS>MOLECULE
/tmp/ewbell/vina_1q6e_1q6e_lig/vina/vina4.pdbqt
 31 32 0 0 0
SMALL
GASTEIGER

@<TRIPOS>ATOM
      1  O9         2.3420   30.5760   23.5250 O.3   493  INH493     -0.3480
      2  C1         1.2930   30.0660   22.7460 C.3   493  INH493      0.2920
      3  O4         1.1250   30.7820   21.5190 O.3   493  INH493     -0.3480
      4  C5         2.2530   30.7090   20.6070 C.3   493  INH493      0.1790
      5  C4         2.5900   29.2500   20.2860 C.3   493  INH493      0.1800
      6  C3         2.8030   28.4670   21.5840 C.3   493  INH493      0.1830
      7  C2         1.5530   28.5860   22.4540 C.3   493  INH493      0.2040
      8  C6         1.8840   31.5050   19.3640 C.3   493  INH493      0.1980
      9  O5         1.1740   30.7100   18.4220 O.3   493  INH493     -0.3980
     10  H11        0.2750   30.6050   18.7100 H     493  INH493      0.2090
     11  O3         3.7680   29.1890   19.4930 O.3   493  INH493     -0.3900
     12  H10        4.2750   28.4240   19.7400 H     493  INH493      0.2100
     13  O2         3.0610   27.1030   21.2890 O.3   493  INH493     -0.3900
     14  H9         3.6620   27.0460   20.5550 H     493  INH493      0.2100
     15  O1         1.7430   27.8730   23.6690 O.3   493  INH493     -0.3880
     16  H8         0.8990   27.6740   24.0540 H     493  INH493      0.2100
     17  C10        1.9830   31.4860   24.5830 C.3   493  INH493      0.1870
     18  C9         0.9410   32.4800   24.0590 C.3   493  INH493      0.1830
     19  C8         0.4570   33.3830   25.1900 C.3   493  INH493      0.2040
     20  C7        -0.0750   32.5250   26.3430 C.3   493  INH493      0.2880
     21  O10        0.9390   31.6060   26.7920 O.3   493  INH493     -0.3490
     22  C11        1.3710   30.7000   25.7520 C.3   493  INH493      0.1800
     23  O8         1.4940   33.2690   23.0220 O.3   493  INH493     -0.3900
     24  H21        1.9820   33.9910   23.3990 H     493  INH493      0.2100
     25  O7        -0.5740   34.2260   24.7050 O.3   493  INH493     -0.3880
     26  H20       -0.3090   35.1340   24.7950 H     493  INH493      0.2100
     27  O6        -1.1670   31.7920   25.9130 O.3   493  INH493     -0.3690
     28  H19       -1.4790   32.1430   25.0860 H     493  INH493      0.2120
     29  C12        2.3240   29.7050   26.3940 C.3   493  INH493      0.1980
     30  O11        3.0450   30.2990   27.4640 O.3   493  INH493     -0.3980
     31  H22        2.5450   30.2160   28.2680 H     493  INH493      0.2090
@<TRIPOS>BOND
     1     9    10    1
     2     9     8    1
     3     8     4    1
     4    11    12    1
     5    11     5    1
     6     5     4    1
     7     5     6    1
     8    14    13    1
     9     4     3    1
    10    13     6    1
    11     3     2    1
    12     6     7    1
    13     7     2    1
    14     7    15    1
    15     2     1    1
    16    23    24    1
    17    23    18    1
    18     1    17    1
    19    15    16    1
    20    18    17    1
    21    18    19    1
    22    17    22    1
    23    25    26    1
    24    25    19    1
    25    28    27    1
    26    19    20    1
    27    22    29    1
    28    22    21    1
    29    27    20    1
    30    20    21    1
    31    29    30    1
    32    30    31    1
