@<TRIPOS>MOLECULE
/tmp/ewbell/vina_1q6e_1q6e_lig/vina/vina2.pdbqt
 31 32 0 0 0
SMALL
GASTEIGER

@<TRIPOS>ATOM
      1  O9         1.6040   31.1060   23.2190 O.3   493  INH493     -0.3480
      2  C1         2.8500   31.0120   22.5810 C.3   493  INH493      0.2920
      3  O4         3.0490   29.7420   21.9540 O.3   493  INH493     -0.3480
      4  C5         2.1240   29.4380   20.8760 C.3   493  INH493      0.1790
      5  C4         2.1730   30.5320   19.8040 C.3   493  INH493      0.1800
      6  C3         1.9340   31.9010   20.4460 C.3   493  INH493      0.1830
      7  C2         2.9710   32.1300   21.5420 C.3   493  INH493      0.2040
      8  C6         2.5010   28.0710   20.3260 C.3   493  INH493      0.1980
      9  O5         2.7670   27.1410   21.3690 O.3   493  INH493     -0.3980
     10  H11        3.5810   26.6850   21.1870 H     493  INH493      0.2090
     11  O3         1.1780   30.2870   18.8180 O.3   493  INH493     -0.3900
     12  H10        1.5230   30.5070   17.9600 H     493  INH493      0.2100
     13  O2         2.0330   32.9190   19.4630 O.3   493  INH493     -0.3900
     14  H9         2.5410   32.6000   18.7260 H     493  INH493      0.2100
     15  O1         2.7530   33.3940   22.1550 O.3   493  INH493     -0.3880
     16  H8         3.4990   33.6140   22.6990 H     493  INH493      0.2100
     17  C10        1.6120   31.1540   24.6580 C.3   493  INH493      0.1870
     18  C9         0.9960   32.4790   25.1210 C.3   493  INH493      0.1830
     19  C8         0.8860   32.5070   26.6430 C.3   493  INH493      0.2040
     20  C7         0.0920   31.2880   27.1250 C.3   493  INH493      0.2880
     21  O10        0.7080   30.0730   26.6580 O.3   493  INH493     -0.3490
     22  C11        0.7700   29.9970   25.2170 C.3   493  INH493      0.1800
     23  O8         1.7870   33.5670   24.6800 O.3   493  INH493     -0.3900
     24  H21        2.6990   33.3070   24.6560 H     493  INH493      0.2100
     25  O7         0.2270   33.6970   27.0410 O.3   493  INH493     -0.3880
     26  H20       -0.5020   33.8660   26.4560 H     493  INH493      0.2100
     27  O6        -1.1960   31.3440   26.6240 O.3   493  INH493     -0.3690
     28  H19       -1.6080   30.4920   26.7100 H     493  INH493      0.2120
     29  C12        1.3030   28.6170   24.8640 C.3   493  INH493      0.1980
     30  O11        0.7680   28.1590   23.6300 O.3   493  INH493     -0.3980
     31  H22        1.3950   28.3200   22.9340 H     493  INH493      0.2090
@<TRIPOS>BOND
     1    12    11    1
     2    14    13    1
     3    11     5    1
     4    13     6    1
     5     5     6    1
     6     5     4    1
     7     8     4    1
     8     8     9    1
     9     6     7    1
    10     4     3    1
    11    10     9    1
    12     7    15    1
    13     7     2    1
    14     3     2    1
    15    15    16    1
    16     2     1    1
    17    31    30    1
    18     1    17    1
    19    30    29    1
    20    24    23    1
    21    17    18    1
    22    17    22    1
    23    23    18    1
    24    29    22    1
    25    18    19    1
    26    22    21    1
    27    26    25    1
    28    27    28    1
    29    27    20    1
    30    19    25    1
    31    19    20    1
    32    21    20    1
