@<TRIPOS>MOLECULE
./ligand/3b50_lig.pdb
 39 39 0 0 0
SMALL
GASTEIGER

@<TRIPOS>ATOM
      1  C1         7.7790   -9.5130  -11.1610 C.2   313  INH313      0.4143
      2  C2        12.4520   -5.4880  -13.5230 C.2   313  INH313      0.2103
      3  C3        10.1800   -8.7400  -11.0090 C.3   313  INH313      0.0405
      4  C4        10.8240   -7.1970  -12.8110 C.3   313  INH313      0.0779
      5  C5        11.3590   -8.2780  -11.8590 C.3   313  INH313      0.0815
      6  C6         9.7250   -7.8030  -13.6960 C.3   313  INH313      0.1114
      7  C7         9.0520   -9.2390  -11.9040 C.3   313  INH313      0.2748
      8  C8        13.5640   -5.1490  -14.4890 C.3   313  INH313      0.0122
      9  C9         7.3850   -6.4740  -16.4860 C.3   313  INH313      0.0727
     10  C10        9.1030   -6.7920  -14.6600 C.3   313  INH313      0.1111
     11  C11        7.9550   -7.4210  -15.4450 C.3   313  INH313      0.1065
     12  N1        11.9210   -6.7250  -13.6610 N.am  313  INH313     -0.3076
     13  O1         7.1790   -8.5230  -10.6660 O.co2 313  INH313     -0.2403
     14  O2         7.3530  -10.6830  -11.1010 O.co2 313  INH313     -0.2403
     15  O3        12.0820   -4.6860  -12.6420 O.2   313  INH313     -0.2761
     16  O4         8.6920   -8.2590  -12.8420 O.3   313  INH313     -0.3320
     17  O5        12.3790   -7.8060  -10.9690 O.3   313  INH313     -0.3897
     18  O6         9.4450  -10.3810  -12.6470 O.3   313  INH313     -0.3560
     19  O7         8.3560   -5.9950  -17.4350 O.3   313  INH313     -0.3924
     20  O8         8.6140   -5.6730  -13.9380 O.3   313  INH313     -0.3865
     21  O9         8.3910   -8.6280  -16.0380 O.3   313  INH313     -0.3869
     22  H1         9.8170   -7.8960  -10.4040 H     313  INH313      0.0349
     23  H2        10.5080   -9.5590  -10.3530 H     313  INH313      0.0349
     24  H3        10.4120   -6.3580  -12.2310 H     313  INH313      0.0550
     25  H4        11.8070   -9.0760  -12.4700 H     313  INH313      0.0614
     26  H5        10.1840   -8.6030  -14.2950 H     313  INH313      0.0643
     27  H6        13.1540   -5.0670  -15.5070 H     313  INH313      0.0322
     28  H7        14.0220   -4.1920  -14.2000 H     313  INH313      0.0322
     29  H8        14.3260   -5.9420  -14.4640 H     313  INH313      0.0322
     30  H9         6.9650   -5.6040  -15.9600 H     313  INH313      0.0584
     31  H10        6.6310   -7.0380  -17.0550 H     313  INH313      0.0584
     32  H11        9.8830   -6.4710  -15.3660 H     313  INH313      0.0646
     33  H12        7.1380   -7.6380  -14.7410 H     313  INH313      0.0643
     34  H13       12.2880   -7.3350  -14.3630 H     313  INH313      0.1491
     35  H14       13.1930   -7.7020  -11.4470 H     313  INH313      0.2099
     36  H15        9.5330  -10.1480  -13.5640 H     313  INH313      0.2133
     37  H16        7.9440   -5.8900  -18.2850 H     313  INH313      0.2095
     38  H17        8.5050   -5.9080  -13.0240 H     313  INH313      0.2100
     39  H18        8.4890   -8.5040  -16.9750 H     313  INH313      0.2100
@<TRIPOS>BOND
     1     1     7    1
     2     1    14   ar
     3     1    13   ar
     4     2    12   am
     5     2    15    2
     6     2     8    1
     7     3    23    1
     8     3    22    1
     9     3     7    1
    10     3     5    1
    11     4     5    1
    12     4    24    1
    13     4    12    1
    14     4     6    1
    15     5    25    1
    16     5    17    1
    17     6    26    1
    18     6    16    1
    19     6    10    1
    20     7    16    1
    21     7    18    1
    22     8    29    1
    23     8    28    1
    24     8    27    1
    25     9    11    1
    26     9    31    1
    27     9    30    1
    28     9    19    1
    29    10    32    1
    30    10    20    1
    31    10    11    1
    32    11    33    1
    33    11    21    1
    34    12    34    1
    35    17    35    1
    36    18    36    1
    37    19    37    1
    38    20    38    1
    39    21    39    1
