@<TRIPOS>MOLECULE
/tmp/ewbell/vina_3b50_3b50_lig/vina/vina2.pdbqt
 28 28 0 0 0
SMALL
GASTEIGER

@<TRIPOS>ATOM
      1  C3        12.6920   -5.1790  -14.0180 C.3   313  INH313      0.1140
      2  C4        10.4700   -6.2250  -14.1070 C.3   313  INH313      0.1450
      3  C5        11.7320   -5.9310  -14.9330 C.3   313  INH313      0.1490
      4  C6        10.8500   -7.0890  -12.8950 C.3   313  INH313      0.1820
      5  C7        12.9770   -6.0010  -12.7670 C.3   313  INH313      0.2530
      6  O4        11.7820   -6.3550  -12.1230 O.3   313  INH313     -0.3360
      7  C10        9.6620   -7.4100  -11.9880 C.3   313  INH313      0.1800
      8  O8         9.9520   -7.0210  -10.6550 O.3   313  INH313     -0.3900
      9  H17       10.6110   -6.3380  -10.6610 H     313  INH313      0.2100
     10  C11        9.3410   -8.9020  -12.0160 C.3   313  INH313      0.1730
     11  C9         7.9190   -9.1920  -11.5710 C.3   313  INH313      0.1980
     12  O7         7.6580  -10.5860  -11.3170 O.3   313  INH313     -0.3980
     13  H16        8.3310  -10.9340  -10.7430 H     313  INH313      0.2090
     14  O9         9.5850   -9.4160  -13.3100 O.3   313  INH313     -0.3910
     15  H18        9.6590  -10.3620  -13.2680 H     313  INH313      0.2100
     16  N1         9.5140   -6.9600  -14.9410 N.am  313  INH313     -0.3520
     17  C2         8.2700   -6.4900  -15.1870 C.2   313  INH313      0.2140
     18  O3         7.8500   -5.4090  -14.7270 O.2   313  INH313     -0.2740
     19  C8         7.4220   -7.3470  -16.0990 C.3   313  INH313      0.1170
     20  H13        9.7910   -7.8340  -15.3410 H     313  INH313      0.1630
     21  O5        11.4880   -5.1070  -16.0810 O.3   313  INH313     -0.3930
     22  H14       10.8680   -5.5400  -16.6560 H     313  INH313      0.2100
     23  C1        13.7420   -5.2470  -11.7210 C.2   313  INH313      0.2050
     24  O2        14.5000   -5.8740  -10.9550 O.2   313  INH313     -0.6460
     25  O1        13.5420   -4.0070  -11.6460 O.3   313  INH313     -0.7720
     26  H         13.9950   -3.4220  -12.2220 H     313  INH313      0.1670
     27  O6        13.6380   -7.2150  -13.0830 O.3   313  INH313     -0.3570
     28  H15       13.3440   -7.8990  -12.4930 H     313  INH313      0.2130
@<TRIPOS>BOND
     1    22    21    1
     2    19    17    1
     3    21     3    1
     4    20    16    1
     5    17    16   am
     6    17    18    2
     7    16     2    1
     8     3     2    1
     9     3     1    1
    10     2     4    1
    11     1     5    1
    12    14    15    1
    13    14    10    1
    14    27     5    1
    15    27    28    1
    16     4     6    1
    17     4     7    1
    18     5     6    1
    19     5    23    1
    20    26    25    1
    21    10     7    1
    22    10    11    1
    23     7     8    1
    24    23    25    1
    25    23    24    2
    26    11    12    1
    27    12    13    1
    28     9     8    1
