@<TRIPOS>MOLECULE
/tmp/ewbell/vina_3b50_3b50_lig/vina/vina4.pdbqt
 28 28 0 0 0
SMALL
GASTEIGER

@<TRIPOS>ATOM
      1  C3         8.2610   -8.1480  -13.0960 C.3   313  INH313      0.1140
      2  C4        10.6050   -8.7790  -12.7130 C.3   313  INH313      0.1450
      3  C5         9.1940   -9.3440  -12.9370 C.3   313  INH313      0.1490
      4  C6        11.0110   -7.9360  -13.9310 C.3   313  INH313      0.1820
      5  C7         8.7360   -7.2590  -14.2390 C.3   313  INH313      0.2530
      6  O4        10.0750   -6.8810  -14.0500 O.3   313  INH313     -0.3360
      7  C10       12.3940   -7.3000  -13.7880 C.3   313  INH313      0.1800
      8  O8        13.3980   -8.2990  -13.8770 O.3   313  INH313     -0.3900
      9  H17       13.2760   -8.9330  -13.1800 H     313  INH313      0.2100
     10  C11       12.5270   -6.5760  -12.4510 C.3   313  INH313      0.1730
     11  C9        13.9690   -6.4880  -11.9870 C.3   313  INH313      0.1980
     12  O7        14.3840   -7.5880  -11.1530 O.3   313  INH313     -0.3980
     13  H16       15.1320   -7.3240  -10.6300 H     313  INH313      0.2090
     14  O9        11.9440   -5.2920  -12.5470 O.3   313  INH313     -0.3910
     15  H18       12.4640   -4.7490  -13.1280 H     313  INH313      0.2100
     16  N1        11.5460   -9.8940  -12.5650 N.am  313  INH313     -0.3520
     17  C2        12.2240  -10.1090  -11.4140 C.2   313  INH313      0.2140
     18  O3        12.1000   -9.3830  -10.4070 O.2   313  INH313     -0.2740
     19  C8        13.1240  -11.3240  -11.4100 C.3   313  INH313      0.1170
     20  H13       11.6900  -10.5130  -13.3360 H     313  INH313      0.1630
     21  O5         8.7090  -10.1320  -11.8420 O.3   313  INH313     -0.3930
     22  H14        9.3130  -10.0640  -11.1120 H     313  INH313      0.2100
     23  C1         8.0010   -5.9560  -14.3270 C.2   313  INH313      0.2050
     24  O2         7.7430   -5.4800  -15.4490 O.2   313  INH313     -0.6460
     25  O1         7.7160   -5.3850  -13.2420 O.3   313  INH313     -0.7720
     26  H          7.7170   -4.4490  -13.1900 H     313  INH313      0.1670
     27  O6         8.6830   -7.9400  -15.4820 O.3   313  INH313     -0.3570
     28  H15        8.0290   -7.5340  -16.0390 H     313  INH313      0.2130
@<TRIPOS>BOND
     1    28    27    1
     2    27     5    1
     3    24    23    2
     4    23     5    1
     5    23    25    1
     6     5     6    1
     7     5     1    1
     8     6     4    1
     9     4     7    1
    10     4     2    1
    11     8     7    1
    12     8     9    1
    13     7    10    1
    14    20    16    1
    15    25    26    1
    16    15    14    1
    17     1     3    1
    18     3     2    1
    19     3    21    1
    20     2    16    1
    21    16    17   am
    22    14    10    1
    23    10    11    1
    24    11    12    1
    25    21    22    1
    26    17    19    1
    27    17    18    2
    28    12    13    1
