@<TRIPOS>MOLECULE
/tmp/ewbell/vina_3b50_3b50_lig/vina/vina5.pdbqt
 28 28 0 0 0
SMALL
GASTEIGER

@<TRIPOS>ATOM
      1  C3         9.5740   -9.9680  -12.1640 C.3   313  INH313      0.1140
      2  C4         8.9340   -7.5950  -12.1290 C.3   313  INH313      0.1450
      3  C5         8.7680   -8.9310  -11.3880 C.3   313  INH313      0.1490
      4  C6        10.4220   -7.2140  -12.1550 C.3   313  INH313      0.1820
      5  C7        11.0280   -9.5250  -12.2760 C.3   313  INH313      0.2530
      6  O4        11.1140   -8.2420  -12.8380 O.3   313  INH313     -0.3360
      7  C10       10.6950   -5.9080  -12.9030 C.3   313  INH313      0.1800
      8  O8        10.0450   -5.9280  -14.1640 O.3   313  INH313     -0.3900
      9  H17        9.1800   -5.5440  -14.0800 H     313  INH313      0.2100
     10  C11       12.1930   -5.7050  -13.1150 C.3   313  INH313      0.1730
     11  C9        12.5920   -5.8540  -14.5720 C.3   313  INH313      0.1980
     12  O7        12.7280   -7.2220  -15.0040 O.3   313  INH313     -0.3980
     13  H16       13.3550   -7.6690  -14.4470 H     313  INH313      0.2090
     14  O9        12.5770   -4.4420  -12.6090 O.3   313  INH313     -0.3910
     15  H18       13.4940   -4.4650  -12.3610 H     313  INH313      0.2100
     16  N1         8.1840   -6.5580  -11.4150 N.am  313  INH313     -0.3520
     17  C2         7.3230   -5.7310  -12.0520 C.2   313  INH313      0.2140
     18  O3         7.1080   -5.7910  -13.2790 O.2   313  INH313     -0.2740
     19  C8         6.5970   -4.7440  -11.1660 C.3   313  INH313      0.1170
     20  H13        8.3110   -6.4590  -10.4280 H     313  INH313      0.1630
     21  O5         7.4110   -9.3900  -11.3280 O.3   313  INH313     -0.3930
     22  H14        6.9910   -9.2450  -12.1680 H     313  INH313      0.2100
     23  C1        11.8410  -10.3800  -13.2010 C.2   313  INH313      0.2050
     24  O2        12.9170   -9.9360  -13.6470 O.2   313  INH313     -0.6460
     25  O1        11.3630  -11.5020  -13.5140 O.3   313  INH313     -0.7720
     26  H         11.4620  -12.2320  -12.9350 H     313  INH313      0.1670
     27  O6        11.6480   -9.4490  -11.0030 O.3   313  INH313     -0.3570
     28  H15       11.6330   -8.5490  -10.6970 H     313  INH313      0.2130
@<TRIPOS>BOND
     1    12    11    1
     2    12    13    1
     3    11    10    1
     4     8     9    1
     5     8     7    1
     6    24    23    2
     7    25    23    1
     8    25    26    1
     9    18    17    2
    10    23     5    1
    11    10     7    1
    12    10    14    1
    13     7     4    1
    14     6     5    1
    15     6     4    1
    16    14    15    1
    17     5     1    1
    18     5    27    1
    19    22    21    1
    20     1     3    1
    21     4     2    1
    22     2    16    1
    23     2     3    1
    24    17    16   am
    25    17    19    1
    26    16    20    1
    27     3    21    1
    28    27    28    1
