@<TRIPOS>MOLECULE
/tmp/ewbell/vina_3b50_3b50_lig/vina/vina3.pdbqt
 28 28 0 0 0
SMALL
GASTEIGER

@<TRIPOS>ATOM
      1  C3         7.8030   -7.8860  -11.6790 C.3   313  INH313      0.1140
      2  C4        10.0750   -8.4260  -12.4450 C.3   313  INH313      0.1450
      3  C5         8.6210   -8.9230  -12.4410 C.3   313  INH313      0.1490
      4  C6        10.1410   -7.0620  -13.1480 C.3   313  INH313      0.1820
      5  C7         7.9630   -6.5140  -12.3230 C.3   313  INH313      0.2530
      6  O4         9.3190   -6.1670  -12.4220 O.3   313  INH313     -0.3360
      7  C10       11.5490   -6.4660  -13.1730 C.3   313  INH313      0.1800
      8  O8        11.4830   -5.0620  -12.9790 O.3   313  INH313     -0.3900
      9  H17       12.0910   -4.6320  -13.5690 H     313  INH313      0.2100
     10  C11       12.2400   -6.7550  -14.5030 C.3   313  INH313      0.1730
     11  C9        12.7770   -5.4950  -15.1560 C.3   313  INH313      0.1980
     12  O7        11.8020   -4.7810  -15.9390 O.3   313  INH313     -0.3980
     13  H16       12.0880   -3.8820  -16.0580 H     313  INH313      0.2090
     14  O9        13.2690   -7.7050  -14.3060 O.3   313  INH313     -0.3910
     15  H18       13.5970   -7.9980  -15.1480 H     313  INH313      0.2100
     16  N1        10.9050   -9.3860  -13.1770 N.am  313  INH313     -0.3520
     17  C2        11.6050  -10.3560  -12.5450 C.2   313  INH313      0.2140
     18  O3        11.5950  -10.5010  -11.3060 O.2   313  INH313     -0.2740
     19  C8        12.3790  -11.2900  -13.4470 C.3   313  INH313      0.1170
     20  H13       10.9550   -9.3230  -14.1740 H     313  INH313      0.1630
     21  O5         8.4470  -10.1850  -11.7840 O.3   313  INH313     -0.3930
     22  H14        8.9170  -10.8580  -12.2610 H     313  INH313      0.2100
     23  C1         7.3630   -5.4030  -11.5150 C.2   313  INH313      0.2050
     24  O2         7.6540   -5.3080  -10.3070 O.2   313  INH313     -0.6460
     25  O1         6.5530   -4.6390  -12.1030 O.3   313  INH313     -0.7720
     26  H          6.1910   -3.9020  -11.6510 H     313  INH313      0.1670
     27  O6         7.4470   -6.4970  -13.6440 O.3   313  INH313     -0.3570
     28  H15        6.5040   -6.6080  -13.6180 H     313  INH313      0.2130
@<TRIPOS>BOND
     1    13    12    1
     2    12    11    1
     3    11    10    1
     4    15    14    1
     5    10    14    1
     6    10     7    1
     7    20    16    1
     8    27    28    1
     9    27     5    1
    10     9     8    1
    11    19    17    1
    12    16    17   am
    13    16     2    1
    14     7     4    1
    15     7     8    1
    16     4     2    1
    17     4     6    1
    18    17    18    2
    19     2     3    1
    20     3    21    1
    21     3     1    1
    22     6     5    1
    23     5     1    1
    24     5    23    1
    25    22    21    1
    26    25    26    1
    27    25    23    1
    28    23    24    2
