@<TRIPOS>MOLECULE
/tmp/ewbell/vina_3b50_3b50_lig/vina/vina1.pdbqt
 28 28 0 0 0
SMALL
GASTEIGER

@<TRIPOS>ATOM
      1  C3        10.0920   -8.5010  -11.2180 C.3   313  INH313      0.1140
      2  C4        10.6020   -7.0060  -13.1020 C.3   313  INH313      0.1450
      3  C5        11.2280   -7.9850  -12.0960 C.3   313  INH313      0.1490
      4  C6         9.5600   -7.7500  -13.9490 C.3   313  INH313      0.1820
      5  C7         9.0120   -9.1420  -12.0810 C.3   313  INH313      0.2530
      6  O4         8.5700   -8.2480  -13.0680 O.3   313  INH313     -0.3360
      7  C10        8.8540   -6.8490  -14.9630 C.3   313  INH313      0.1800
      8  O8         8.3750   -5.6790  -14.3190 O.3   313  INH313     -0.3900
      9  H17        9.0200   -5.3770  -13.6900 H     313  INH313      0.2100
     10  C11        7.6820   -7.5760  -15.6160 C.3   313  INH313      0.1730
     11  C9         7.1970   -6.8730  -16.8710 C.3   313  INH313      0.1980
     12  O7         8.0340   -5.7760  -17.2870 O.3   313  INH313     -0.3980
     13  H16        7.5850   -4.9550  -17.1210 H     313  INH313      0.2090
     14  O9         8.0470   -8.9140  -15.8910 O.3   313  INH313     -0.3910
     15  H18        7.7040   -9.1690  -16.7390 H     313  INH313      0.2100
     16  N1        11.6550   -6.4880  -13.9800 N.am  313  INH313     -0.3520
     17  C2        12.3350   -5.3550  -13.6890 C.2   313  INH313      0.2140
     18  O3        12.1170   -4.6770  -12.6650 O.2   313  INH313     -0.2740
     19  C8        13.4170   -4.9780  -14.6760 C.3   313  INH313      0.1170
     20  H13       11.8780   -6.9870  -14.8170 H     313  INH313      0.1630
     21  O5        12.2030   -7.3810  -11.2360 O.3   313  INH313     -0.3930
     22  H14       11.7760   -6.7540  -10.6650 H     313  INH313      0.2100
     23  C1         7.7660   -9.4840  -11.3200 C.2   313  INH313      0.2050
     24  O2         7.1200   -8.5700  -10.7730 O.2   313  INH313     -0.6460
     25  O1         7.4600  -10.7030  -11.2390 O.3   313  INH313     -0.7720
     26  H          7.7240  -11.2040  -10.4920 H     313  INH313      0.1670
     27  O6         9.5020  -10.2840  -12.7640 O.3   313  INH313     -0.3570
     28  H15       10.4410  -10.3520  -12.6350 H     313  INH313      0.2130
@<TRIPOS>BOND
     1    12    13    1
     2    12    11    1
     3    11    10    1
     4    15    14    1
     5    14    10    1
     6    10     7    1
     7     7     8    1
     8     7     4    1
     9    20    16    1
    10    19    17    1
    11     8     9    1
    12    16    17   am
    13    16     2    1
    14     4     2    1
    15     4     6    1
    16    17    18    2
    17     2     3    1
    18     6     5    1
    19    27    28    1
    20    27     5    1
    21     3    21    1
    22     3     1    1
    23     5    23    1
    24     5     1    1
    25    23    25    1
    26    23    24    2
    27    25    26    1
    28    21    22    1
