@<TRIPOS>MOLECULE
./ligand/2c94_lig.pdb
 53 54 0 0 0
SMALL
GASTEIGER

@<TRIPOS>ATOM
      1  O1        47.2760    3.5220   -1.4210 O.2   741  INH741     -0.4547
      2  P1        47.2250    3.6840    0.0730 P.3   741  INH741      0.1781
      3  O2        48.5930    3.6690    0.7200 O.3   741  INH741     -0.3536
      4  O3        46.3210    4.8010    0.5490 O.3   741  INH741     -0.3536
      5  C1        46.4410    2.1600    0.6650 C.3   741  INH741      0.2990
      6  F1        45.1980    2.1080    0.2250 F     741  INH741     -0.1974
      7  F2        47.1280    1.1390    0.1860 F     741  INH741     -0.1974
      8  C2        46.4300    2.1160    2.1900 C.3   741  INH741      0.0178
      9  C3        46.4380    0.6850    2.7280 C.3   741  INH741     -0.0456
     10  C4        45.4590    0.5340    3.8870 C.3   741  INH741     -0.0346
     11  C5        44.0430    0.6770    3.3510 C.3   741  INH741      0.0284
     12  N1        43.0900    0.4180    4.4260 N.ar  741  INH741     -0.2863
     13  C6        42.6070   -0.7460    4.8740 C.ar  741  INH741      0.1522
     14  C7        42.8660   -2.1430    4.4590 C.ar  741  INH741      0.2799
     15  O4        43.6580   -2.4280    3.5310 O.2   741  INH741     -0.2654
     16  N2        42.1900   -3.0890    5.1320 N.ar  741  INH741     -0.2733
     17  C8        42.4790    1.3160    5.2040 C.ar  741  INH741      0.3315
     18  O5        42.6650    2.5850    5.0870 O.2   741  INH741     -0.2463
     19  N3        41.6320    0.8430    6.1190 N.ar  741  INH741     -0.2754
     20  C9        41.6550   -0.4910    5.9700 C.ar  741  INH741      0.1486
     21  N4        41.0700   -1.5420    6.5470 N.ar  741  INH741     -0.2920
     22  C10       41.3310   -2.7950    6.1430 C.ar  741  INH741      0.3283
     23  O6        40.7380   -3.7180    6.7320 O.2   741  INH741     -0.2466
     24  C11       40.8930    1.7060    7.0310 C.3   741  INH741      0.0580
     25  C12       40.2270    1.0250    8.2130 C.3   741  INH741      0.1015
     26  O7        41.0720    0.0980    8.9140 O.3   741  INH741     -0.3874
     27  C13       39.5550    2.0120    9.1620 C.3   741  INH741      0.1106
     28  O8        38.1710    1.7020    8.9690 O.3   741  INH741     -0.3865
     29  C14       39.7630    3.5190    8.9130 C.3   741  INH741      0.1065
     30  O9        41.1230    3.9190    9.1400 O.3   741  INH741     -0.3869
     31  C15       38.8720    4.3650    9.8230 C.3   741  INH741      0.0726
     32  O10       39.0540    3.9240   11.1800 O.3   741  INH741     -0.3924
     33  H1        45.5250    2.6250    2.5520 H     741  INH741      0.0327
     34  H2        47.3210    2.6400    2.5660 H     741  INH741      0.0327
     35  H3        47.4510    0.4370    3.0780 H     741  INH741      0.0268
     36  H4        46.1500   -0.0050    1.9210 H     741  INH741      0.0268
     37  H5        45.6510    1.3150    4.6380 H     741  INH741      0.0282
     38  H6        45.5820   -0.4570    4.3480 H     741  INH741      0.0282
     39  H7        43.8840   -0.0460    2.5370 H     741  INH741      0.0493
     40  H8        43.8960    1.6980    2.9690 H     741  INH741      0.0493
     41  H9        42.3240   -4.0470    4.8790 H     741  INH741      0.1735
     42  H10       40.4240   -1.3930    7.2960 H     741  INH741      0.1718
     43  H11       40.1080    2.2120    6.4500 H     741  INH741      0.0520
     44  H12       41.5960    2.4540    7.4280 H     741  INH741      0.0520
     45  H13       39.4150    0.4190    7.7830 H     741  INH741      0.0638
     46  H14       40.5900   -0.2860    9.6360 H     741  INH741      0.2100
     47  H15       39.8710    1.7940   10.1930 H     741  INH741      0.0646
     48  H16       37.6400    2.2650    9.5200 H     741  INH741      0.2100
     49  H17       39.5030    3.7300    7.8650 H     741  INH741      0.0643
     50  H18       41.2100    4.8510    8.9770 H     741  INH741      0.2100
     51  H19       37.8190    4.2400    9.5310 H     741  INH741      0.0584
     52  H20       39.1540    5.4250    9.7370 H     741  INH741      0.0584
     53  H21       38.5060    4.4420   11.7570 H     741  INH741      0.2095
@<TRIPOS>BOND
     1     1     2    2
     2     2     4    1
     3     2     5    1
     4     2     3    1
     5     7     5    1
     6     6     5    1
     7     5     8    1
     8    36     9    1
     9     8    33    1
    10     8    34    1
    11     8     9    1
    12    39    11    1
    13     9    35    1
    14     9    10    1
    15    40    11    1
    16    11    10    1
    17    11    12    1
    18    15    14    2
    19    10    38    1
    20    10    37    1
    21    12    13   ar
    22    12    17   ar
    23    14    13   ar
    24    14    16   ar
    25    13    20   ar
    26    41    16    1
    27    18    17    2
    28    16    22   ar
    29    17    19   ar
    30    20    19   ar
    31    20    21   ar
    32    19    24    1
    33    22    21   ar
    34    22    23    2
    35    43    24    1
    36    21    42    1
    37    24    44    1
    38    24    25    1
    39    45    25    1
    40    49    29    1
    41    25    26    1
    42    25    27    1
    43    29    30    1
    44    29    27    1
    45    29    31    1
    46    26    46    1
    47    28    27    1
    48    28    48    1
    49    50    30    1
    50    27    47    1
    51    51    31    1
    52    52    31    1
    53    31    32    1
    54    32    53    1
