@<TRIPOS>MOLECULE
/tmp/ewbell/vina_2c94_2c94_lig/vina/vina1.pdbqt
 40 41 0 0 0
SMALL
GASTEIGER

@<TRIPOS>ATOM
      1  N1        43.6140    0.4630    4.2570 N.ar  741  INH741     -0.2910
      2  C6        43.0250   -0.6270    4.7590 C.ar  741  INH741      0.1520
      3  C7        43.0800   -2.0500    4.3530 C.ar  741  INH741      0.2800
      4  O4        43.7620   -2.4400    3.3770 O.2   741  INH741     -0.2650
      5  N2        42.3430   -2.8980    5.0890 N.ar  741  INH741     -0.2730
      6  C8        43.1760    1.4380    5.0590 C.ar  741  INH741      0.3310
      7  O5        43.5080    2.6730    4.9060 O.2   741  INH741     -0.2460
      8  N3        42.3450    1.0820    6.0390 N.ar  741  INH741     -0.2800
      9  C9        42.1930   -0.2460    5.9140 C.ar  741  INH741      0.1480
     10  N4        41.5260   -1.2100    6.5500 N.ar  741  INH741     -0.2920
     11  C10       41.6010   -2.4900    6.1520 C.ar  741  INH741      0.3280
     12  O6        40.9430   -3.3270    6.7980 O.2   741  INH741     -0.2470
     13  H9        42.3390   -3.8680    4.8450 H     741  INH741      0.1730
     14  H10       40.9580   -0.9750    7.3390 H     741  INH741      0.1720
     15  C5        44.5120    0.5920    3.1130 C.3   741  INH741      0.1340
     16  C4        45.9320    0.2620    3.5470 C.3   741  INH741      0.0200
     17  C3        46.9040    1.0590    2.6850 C.3   741  INH741      0.0080
     18  C2        46.2150    2.2770    2.0690 C.3   741  INH741      0.0920
     19  C1        46.3730    2.3240    0.5520 C.3   741  INH741      0.3370
     20  F2        46.8460    1.1740    0.1090 F     741  INH741     -0.1930
     21  F1        45.1970    2.5630    0.0040 F     741  INH741     -0.1930
     22  P1        47.5370    3.6280    0.0680 P.3   741  INH741      0.3090
     23  O1        47.6110    3.5250   -1.4310 O.2   741  INH741     -0.6500
     24  O3        46.9210    4.9140    0.5760 O.3   741  INH741     -0.3250
     25  H         46.5710    4.7740    1.4700 H     741  INH741      0.2200
     26  O2        48.8290    3.2410    0.7550 O.3   741  INH741     -0.3250
     27  H         49.5070    3.0520    0.0870 H     741  INH741      0.2200
     28  C11       41.7850    2.0390    6.9850 C.3   741  INH741      0.1700
     29  C12       40.3140    2.3720    6.8160 C.3   741  INH741      0.1680
     30  O7        39.4300    1.2530    6.9940 O.3   741  INH741     -0.3910
     31  H14       38.5720    1.4690    6.6480 H     741  INH741      0.2100
     32  C13       39.8810    3.5760    7.6460 C.3   741  INH741      0.1790
     33  C14       38.6180    3.4430    8.5200 C.3   741  INH741      0.1730
     34  O9        37.4160    3.6760    7.7690 O.3   741  INH741     -0.3910
     35  H18       37.4420    4.5480    7.3950 H     741  INH741      0.2100
     36  C15       38.6370    4.4330    9.6850 C.3   741  INH741      0.1980
     37  O10       39.3540    3.8360   10.7800 O.3   741  INH741     -0.3980
     38  H21       39.4590    4.4750   11.4740 H     741  INH741      0.2090
     39  O8        41.0140    3.7590    8.5020 O.3   741  INH741     -0.3900
     40  H16       40.9150    4.5670    8.9900 H     741  INH741      0.2100
@<TRIPOS>BOND
     1    23    22    2
     2    21    19    1
     3    22    19    1
     4    22    24    1
     5    22    26    1
     6    27    26    1
     7    20    19    1
     8    19    18    1
     9    24    25    1
    10    18    17    1
    11    17    16    1
    12    15    16    1
    13    15     1    1
    14     4     3    2
    15     1     2   ar
    16     1     6   ar
    17     3     2   ar
    18     3     5   ar
    19     2     9   ar
    20    13     5    1
    21     7     6    2
    22     6     8   ar
    23     5    11   ar
    24     9     8   ar
    25     9    10   ar
    26     8    28    1
    27    11    10   ar
    28    11    12    2
    29    10    14    1
    30    31    30    1
    31    29    28    1
    32    29    30    1
    33    29    32    1
    34    35    34    1
    35    32    39    1
    36    32    33    1
    37    34    33    1
    38    39    40    1
    39    33    36    1
    40    36    37    1
    41    37    38    1
