@<TRIPOS>MOLECULE
/tmp/ewbell/vina_2c94_2c94_lig/vina/vina2.pdbqt
 40 41 0 0 0
SMALL
GASTEIGER

@<TRIPOS>ATOM
      1  N1        42.2990    0.7880    6.3970 N.ar  741  INH741     -0.2910
      2  C6        42.5750   -0.2980    5.6670 C.ar  741  INH741      0.1520
      3  C7        42.2290   -1.7250    5.8560 C.ar  741  INH741      0.2800
      4  O4        41.5620   -2.1250    6.8390 O.2   741  INH741     -0.2650
      5  N2        42.6830   -2.5680    4.9150 N.ar  741  INH741     -0.2730
      6  C8        42.8800    1.7710    5.7040 C.ar  741  INH741      0.3310
      7  O5        42.8570    3.0020    6.0830 O.2   741  INH741     -0.2460
      8  N3        43.5180    1.4240    4.5860 N.ar  741  INH741     -0.2800
      9  C9        43.3700    0.0940    4.4890 C.ar  741  INH741      0.1480
     10  N4        43.7380   -0.8640    3.6360 N.ar  741  INH741     -0.2920
     11  C10       43.4040   -2.1480    3.8420 C.ar  741  INH741      0.3280
     12  O6        43.7930   -2.9790    3.0000 O.2   741  INH741     -0.2470
     13  H9        42.4840   -3.5440    5.0070 H     741  INH741      0.1730
     14  H10       44.2740   -0.6210    2.8280 H     741  INH741      0.1720
     15  C5        41.5580    0.9020    7.6500 C.3   741  INH741      0.1340
     16  C4        40.0680    0.9600    7.3500 C.3   741  INH741      0.0200
     17  C3        39.3540    1.5860    8.5430 C.3   741  INH741      0.0080
     18  C2        39.9120    2.9760    8.8450 C.3   741  INH741      0.0920
     19  C1        39.0290    4.0880    8.2840 C.3   741  INH741      0.3370
     20  F2        37.8870    3.5850    7.8510 F     741  INH741     -0.1930
     21  F1        38.7970    4.9730    9.2330 F     741  INH741     -0.1930
     22  P1        39.8420    4.9060    6.8840 P.3   741  INH741      0.3090
     23  O1        39.7010    3.9300    5.7480 O.2   741  INH741     -0.6500
     24  O3        39.0840    6.2020    6.6920 O.3   741  INH741     -0.3250
     25  H         38.7840    6.2680    5.7710 H     741  INH741      0.2200
     26  O2        41.2740    5.0830    7.3420 O.3   741  INH741     -0.3250
     27  H         41.8620    4.5560    6.7780 H     741  INH741      0.2200
     28  C11       44.2000    2.3900    3.7340 C.3   741  INH741      0.1700
     29  C12       45.6510    2.0930    3.4040 C.3   741  INH741      0.1680
     30  O7        46.2320    1.0410    4.1920 O.3   741  INH741     -0.3910
     31  H14       47.1450    0.9330    3.9520 H     741  INH741      0.2100
     32  C13       45.8870    1.8830    1.9120 C.3   741  INH741      0.1790
     33  C14       47.2960    1.4590    1.4500 C.3   741  INH741      0.1730
     34  O9        47.7180    0.2330    2.0650 O.3   741  INH741     -0.3910
     35  H18       48.2870   -0.2400    1.4690 H     741  INH741      0.2100
     36  C15       48.3380    2.5280    1.7810 C.3   741  INH741      0.1980
     37  O10       48.5950    3.2990    0.5950 O.3   741  INH741     -0.3980
     38  H21       48.3210    2.8060   -0.1690 H     741  INH741      0.2090
     39  O8        44.9710    0.8220    1.6210 O.3   741  INH741     -0.3900
     40  H16       44.3440    0.7410    2.3300 H     741  INH741      0.2100
@<TRIPOS>BOND
     1    38    37    1
     2    37    36    1
     3    33    36    1
     4    33    32    1
     5    33    34    1
     6    35    34    1
     7    39    32    1
     8    39    40    1
     9    32    29    1
    10    14    10    1
    11    12    11    2
    12    29    28    1
    13    29    30    1
    14    10    11   ar
    15    10     9   ar
    16    28     8    1
    17    11     5   ar
    18    31    30    1
    19     9     8   ar
    20     9     2   ar
    21     8     6   ar
    22     5    13    1
    23     5     3   ar
    24     2     3   ar
    25     2     1   ar
    26     6     7    2
    27     6     1   ar
    28    23    22    2
    29    25    24    1
    30     3     4    2
    31     1    15    1
    32    24    22    1
    33    27    26    1
    34    22    26    1
    35    22    19    1
    36    16    15    1
    37    16    17    1
    38    20    19    1
    39    19    18    1
    40    19    21    1
    41    17    18    1
