@<TRIPOS>MOLECULE
/tmp/ewbell/vina_2c94_2c94_lig/vina/vina4.pdbqt
 40 41 0 0 0
SMALL
GASTEIGER

@<TRIPOS>ATOM
      1  N1        44.9310   -0.0280    1.3350 N.ar  741  INH741     -0.2910
      2  C6        45.9360    0.8540    1.3160 C.ar  741  INH741      0.1520
      3  C7        46.9440    1.2180    2.3380 C.ar  741  INH741      0.2800
      4  O4        46.9720    0.6810    3.4690 O.2   741  INH741     -0.2650
      5  N2        47.8220    2.1710    1.9810 N.ar  741  INH741     -0.2730
      6  C8        44.3920    0.1060    0.1190 C.ar  741  INH741      0.3310
      7  O5        43.3700   -0.5730   -0.2710 O.2   741  INH741     -0.2460
      8  N3        44.9530    1.0030   -0.6930 N.ar  741  INH741     -0.2800
      9  C9        45.9640    1.5370    0.0100 C.ar  741  INH741      0.1480
     10  N4        46.9090    2.4560   -0.1950 N.ar  741  INH741     -0.2920
     11  C10       47.8060    2.7590    0.7570 C.ar  741  INH741      0.3280
     12  O6        48.6510    3.6320    0.4850 O.2   741  INH741     -0.2470
     13  H9        48.5140    2.4580    2.6430 H     741  INH741      0.1730
     14  H10       46.9500    2.9290   -1.0750 H     741  INH741      0.1720
     15  C5        44.4990   -0.9230    2.4040 C.3   741  INH741      0.1340
     16  C4        43.5380   -0.1840    3.3220 C.3   741  INH741      0.0200
     17  C3        43.9460   -0.4440    4.7680 C.3   741  INH741      0.0080
     18  C2        43.0930    0.3800    5.7320 C.3   741  INH741      0.0920
     19  C1        42.0800   -0.4770    6.4850 C.3   741  INH741      0.3370
     20  F2        41.1800   -0.9590    5.6460 F     741  INH741     -0.1930
     21  F1        42.7130   -1.4700    7.0790 F     741  INH741     -0.1930
     22  P1        41.2060    0.5090    7.7310 P.3   741  INH741      0.3090
     23  O1        41.1830   -0.3690    8.9530 O.2   741  INH741     -0.6500
     24  O3        42.0300    1.7700    7.8840 O.3   741  INH741     -0.3250
     25  H         42.6010    1.8790    7.1070 H     741  INH741      0.2200
     26  O2        39.8340    0.7280    7.1310 O.3   741  INH741     -0.3250
     27  H         39.8680    1.4680    6.5050 H     741  INH741      0.2200
     28  C11       44.4670    1.2570   -2.0420 C.3   741  INH741      0.1700
     29  C12       43.7800    2.5910   -2.2720 C.3   741  INH741      0.1680
     30  O7        42.9380    3.0160   -1.1880 O.3   741  INH741     -0.3910
     31  H14       43.0960    3.9340   -1.0050 H     741  INH741      0.2100
     32  C13       44.7470    3.6880   -2.7050 C.3   741  INH741      0.1790
     33  C14       44.2920    4.6660   -3.8070 C.3   741  INH741      0.1730
     34  O9        44.0880    5.9930   -3.2970 O.3   741  INH741     -0.3910
     35  H18       44.3370    6.0220   -2.3820 H     741  INH741      0.2100
     36  C15       42.9840    4.2120   -4.4540 C.3   741  INH741      0.1980
     37  O10       41.8870    4.8020   -3.7330 O.3   741  INH741     -0.3980
     38  H21       41.9160    4.5190   -2.8270 H     741  INH741      0.2090
     39  O8        44.9200    4.4180   -1.4860 O.3   741  INH741     -0.3900
     40  H16       44.7290    5.3360   -1.6370 H     741  INH741      0.2100
@<TRIPOS>BOND
     1    36    33    1
     2    36    37    1
     3    33    34    1
     4    33    32    1
     5    37    38    1
     6    34    35    1
     7    32    29    1
     8    32    39    1
     9    29    28    1
    10    29    30    1
    11    28     8    1
    12    40    39    1
    13    30    31    1
    14    14    10    1
    15     8     9   ar
    16     8     6   ar
    17     7     6    2
    18    10     9   ar
    19    10    11   ar
    20     9     2   ar
    21     6     1   ar
    22    12    11    2
    23    11     5   ar
    24     2     1   ar
    25     2     3   ar
    26     1    15    1
    27     5     3   ar
    28     5    13    1
    29     3     4    2
    30    15    16    1
    31    16    17    1
    32    17    18    1
    33    20    19    1
    34    18    19    1
    35    19    21    1
    36    19    22    1
    37    27    26    1
    38    25    24    1
    39    26    22    1
    40    22    24    1
    41    22    23    2
