@<TRIPOS>MOLECULE
/tmp/ewbell/vina_2c94_2c94_lig/vina/vina3.pdbqt
 40 41 0 0 0
SMALL
GASTEIGER

@<TRIPOS>ATOM
      1  N1        43.9260    0.5050    3.5700 N.ar  741  INH741     -0.2910
      2  C6        44.1200   -0.1760    2.4350 C.ar  741  INH741      0.1520
      3  C7        44.2470   -1.6260    2.1670 C.ar  741  INH741      0.2800
      4  O4        44.1820   -2.4820    3.0800 O.2   741  INH741     -0.2650
      5  N2        44.4470   -1.9690    0.8840 N.ar  741  INH741     -0.2730
      6  C8        43.8970    1.7750    3.1580 C.ar  741  INH741      0.3310
      7  O5        43.7380    2.7680    3.9620 O.2   741  INH741     -0.2460
      8  N3        44.0610    1.9880    1.8510 N.ar  741  INH741     -0.2800
      9  C9        44.2140    0.7700    1.3080 C.ar  741  INH741      0.1480
     10  N4        44.4050    0.2690    0.0870 N.ar  741  INH741     -0.2920
     11  C10       44.5150   -1.0530   -0.1170 C.ar  741  INH741      0.3280
     12  O6        44.6980   -1.4350   -1.2880 O.2   741  INH741     -0.2470
     13  H9        44.5500   -2.9380    0.6560 H     741  INH741      0.1730
     14  H10       44.4680    0.8920   -0.6940 H     741  INH741      0.1720
     15  C5        43.7860    0.0120    4.9370 C.3   741  INH741      0.1340
     16  C4        42.3910   -0.5620    5.1260 C.3   741  INH741      0.0200
     17  C3        41.8670   -0.1340    6.4920 C.3   741  INH741      0.0080
     18  C2        41.6070    1.3720    6.5290 C.3   741  INH741      0.0920
     19  C1        41.4820    1.9020    7.9550 C.3   741  INH741      0.3370
     20  F2        41.6490    0.9180    8.8210 F     741  INH741     -0.1930
     21  F1        42.3980    2.8300    8.1510 F     741  INH741     -0.1930
     22  P1        39.8370    2.6120    8.2320 P.3   741  INH741      0.3090
     23  O1        39.0410    2.1950    7.0250 O.2   741  INH741     -0.6500
     24  O3        39.3600    2.0050    9.5340 O.3   741  INH741     -0.3250
     25  H         38.5700    1.4660    9.3700 H     741  INH741      0.2200
     26  O2        40.0850    4.1040    8.2930 O.3   741  INH741     -0.3250
     27  H         39.9160    4.4240    9.1930 H     741  INH741      0.2200
     28  C11       44.0560    3.3210    1.2630 C.3   741  INH741      0.1700
     29  C12       45.2050    3.6490    0.3280 C.3   741  INH741      0.1680
     30  O7        44.9660    4.7770   -0.5290 O.3   741  INH741     -0.3910
     31  H14       44.1810    5.2300   -0.2450 H     741  INH741      0.2100
     32  C13       46.5430    3.7580    1.0510 C.3   741  INH741      0.1790
     33  C14       47.6090    2.6760    0.7800 C.3   741  INH741      0.1730
     34  O9        47.1350    1.6700   -0.1290 O.3   741  INH741     -0.3910
     35  H18       47.1140    0.8300    0.3120 H     741  INH741      0.2100
     36  C15       48.0330    1.9730    2.0690 C.3   741  INH741      0.1980
     37  O10       49.4650    1.8330    2.0640 O.3   741  INH741     -0.3980
     38  H21       49.6930    0.9140    2.1300 H     741  INH741      0.2090
     39  O8        47.0320    5.0130    0.5680 O.3   741  INH741     -0.3900
     40  H16       47.0160    5.6510    1.2700 H     741  INH741      0.2100
@<TRIPOS>BOND
     1    12    11    2
     2    14    10    1
     3    30    31    1
     4    30    29    1
     5    34    35    1
     6    34    33    1
     7    11    10   ar
     8    11     5   ar
     9    10     9   ar
    10    29    32    1
    11    29    28    1
    12    39    32    1
    13    39    40    1
    14    13     5    1
    15    33    32    1
    16    33    36    1
    17     5     3   ar
    18    28     8    1
    19     9     8   ar
    20     9     2   ar
    21     8     6   ar
    22    37    36    1
    23    37    38    1
    24     3     2   ar
    25     3     4    2
    26     2     1   ar
    27     6     1   ar
    28     6     7    2
    29     1    15    1
    30    15    16    1
    31    16    17    1
    32    17    18    1
    33    18    19    1
    34    23    22    2
    35    19    21    1
    36    19    22    1
    37    19    20    1
    38    22    26    1
    39    22    24    1
    40    26    27    1
    41    25    24    1
