@<TRIPOS>MOLECULE
/tmp/ewbell/vina_2c94_2c94_lig/vina/vina5.pdbqt
 40 41 0 0 0
SMALL
GASTEIGER

@<TRIPOS>ATOM
      1  N1        58.2850   -0.7990   17.0400 N.ar  741  INH741     -0.2910
      2  C6        58.3810    0.4340   16.5320 C.ar  741  INH741      0.1520
      3  C7        58.1800    1.7670   17.1440 C.ar  741  INH741      0.2800
      4  O4        57.8570    1.9090   18.3460 O.2   741  INH741     -0.2650
      5  N2        58.3540    2.8190   16.3260 N.ar  741  INH741     -0.2730
      6  C8        58.5870   -1.5780   15.9970 C.ar  741  INH741      0.3310
      7  O5        58.5980   -2.8640   16.0630 O.2   741  INH741     -0.2460
      8  N3        58.8660   -0.9620   14.8470 N.ar  741  INH741     -0.2800
      9  C9        58.7520    0.3500   15.1080 C.ar  741  INH741      0.1480
     10  N4        58.8970    1.4900   14.4320 N.ar  741  INH741     -0.2920
     11  C10       58.7070    2.6810   15.0210 C.ar  741  INH741      0.3280
     12  O6        58.8580    3.6960   14.3160 O.2   741  INH741     -0.2470
     13  H9        58.2170    3.7400   16.6920 H     741  INH741      0.1730
     14  H10       59.1540    1.4570   13.4650 H     741  INH741      0.1720
     15  C5        57.9330   -1.2240   18.3920 C.3   741  INH741      0.1340
     16  C4        56.5430   -1.8400   18.3810 C.3   741  INH741      0.0200
     17  C3        55.5140   -0.7290   18.5550 C.3   741  INH741      0.0080
     18  C2        54.6130   -0.6210   17.3250 C.3   741  INH741      0.0920
     19  C1        53.6720    0.5780   17.4000 C.3   741  INH741      0.3370
     20  F2        52.4880    0.2570   16.9120 F     741  INH741     -0.1930
     21  F1        53.5500    0.9500   18.6600 F     741  INH741     -0.1930
     22  P1        54.3190    1.9620   16.4240 P.3   741  INH741      0.3090
     23  O1        53.0930    2.6270   15.8600 O.2   741  INH741     -0.6500
     24  O3        55.0910    2.8120   17.4110 O.3   741  INH741     -0.3250
     25  H         55.6660    2.2440   17.9470 H     741  INH741      0.2200
     26  O2        55.1750    1.2990   15.3670 O.3   741  INH741     -0.3250
     27  H         56.0670    1.6800   15.3870 H     741  INH741      0.2200
     28  C11       59.2060   -1.6840   13.6280 C.3   741  INH741      0.1700
     29  C12       58.0520   -2.3210   12.8770 C.3   741  INH741      0.1680
     30  O7        57.8310   -3.7050   13.1970 O.3   741  INH741     -0.3910
     31  H14       56.9360   -3.8230   13.4910 H     741  INH741      0.2100
     32  C13       56.7660   -1.5050   12.9650 C.3   741  INH741      0.1790
     33  C14       56.5620   -0.3560   11.9570 C.3   741  INH741      0.1730
     34  O9        56.1460    0.8580   12.6000 O.3   741  INH741     -0.3910
     35  H18       55.6300    0.6470   13.3690 H     741  INH741      0.2100
     36  C15       55.5060   -0.7120   10.9090 C.3   741  INH741      0.1980
     37  O10       56.0500   -1.7160   10.0350 O.3   741  INH741     -0.3980
     38  H21       56.7170   -2.2100   10.4960 H     741  INH741      0.2090
     39  O8        55.7720   -2.5070   12.7260 O.3   741  INH741     -0.3900
     40  H16       56.1830   -3.2820   12.3640 H     741  INH741      0.2100
@<TRIPOS>BOND
     1    37    38    1
     2    37    36    1
     3    36    33    1
     4    33    34    1
     5    33    32    1
     6    40    39    1
     7    34    35    1
     8    39    32    1
     9    29    32    1
    10    29    30    1
    11    29    28    1
    12    30    31    1
    13    14    10    1
    14    28     8    1
    15    12    11    2
    16    10    11   ar
    17    10     9   ar
    18     8     9   ar
    19     8     6   ar
    20    11     5   ar
    21     9     2   ar
    22    26    27    1
    23    26    22    1
    24    23    22    2
    25     6     7    2
    26     6     1   ar
    27     5    13    1
    28     5     3   ar
    29    22    19    1
    30    22    24    1
    31     2     1   ar
    32     2     3   ar
    33    20    19    1
    34     1    15    1
    35     3     4    2
    36    18    19    1
    37    18    17    1
    38    19    21    1
    39    24    25    1
    40    16    15    1
    41    16    17    1
