@<TRIPOS>MOLECULE
./ligand/2fvd_lig.pdb
 51 53 0 0 0
SMALL
GASTEIGER

@<TRIPOS>ATOM
      1  N1         6.0060   26.4970    6.9800 N.3   291  INH291     -0.1813
      2  C1         5.2280   26.2350    5.7370 C.3   291  INH291      0.0218
      3  C2         4.4250   27.4970    5.3560 C.3   291  INH291     -0.0200
      4  C3         3.4740   27.9120    6.5080 C.3   291  INH291      0.0257
      5  C4         4.2630   28.0220    7.8590 C.3   291  INH291     -0.0200
      6  C5         5.0840   26.7430    8.1290 C.3   291  INH291      0.0218
      7  N2         2.8530   29.1930    6.1450 N.pl3 291  INH291     -0.3105
      8  C6         1.7690   29.5320    6.9000 C.ar  291  INH291      0.2171
      9  N3         1.0690   28.5960    7.5970 N.ar  291  INH291     -0.2221
     10  C7         0.0490   28.9490    8.3170 C.ar  291  INH291      0.0453
     11  C8        -0.4000   30.3250    8.4220 C.ar  291  INH291      0.0801
     12  C9         0.3640   31.2870    7.6590 C.ar  291  INH291      0.1322
     13  N4         1.4370   30.8560    6.9140 N.ar  291  INH291     -0.1992
     14  C10       -1.5430   30.6550    9.2600 C.2   291  INH291      0.2043
     15  O1        -1.9700   31.8210    9.3190 O.2   291  INH291     -0.2863
     16  C11       -2.1970   29.6470   10.0640 C.ar  291  INH291      0.1019
     17  C12       -3.5480   29.2590    9.7500 C.ar  291  INH291      0.1727
     18  C13       -4.2120   28.2570   10.5240 C.ar  291  INH291      0.1593
     19  C14       -3.5480   27.6250   11.6160 C.ar  291  INH291     -0.0201
     20  C15       -2.2140   27.9920   11.9500 C.ar  291  INH291     -0.0163
     21  C16       -1.5100   29.0040   11.1890 C.ar  291  INH291      0.1339
     22  O2        -0.1880   29.4010   11.4900 O.3   291  INH291     -0.4943
     23  C17        0.5550   28.3980   12.2270 C.3   291  INH291      0.0788
     24  F1        -4.2020   29.8250    8.7400 F     291  INH291     -0.2016
     25  F2        -5.4500   27.9070   10.2290 F     291  INH291     -0.2025
     26  N5         0.0830   32.6030    7.6390 N.pl3 291  INH291     -0.3424
     27  S1         7.0630   25.2110    7.3100 S.O2  291  INH291      0.0290
     28  C18        6.1790   23.6620    7.7100 C.3   291  INH291      0.0707
     29  O3         7.8710   25.5860    8.4490 O.2   291  INH291     -0.1583
     30  O4         7.9110   25.0020    6.1680 O.2   291  INH291     -0.1583
     31  H1         4.5350   25.3980    5.9080 H     291  INH291      0.0444
     32  H2         5.9180   25.9790    4.9200 H     291  INH291      0.0444
     33  H3         3.8300   27.2880    4.4550 H     291  INH291      0.0296
     34  H4         5.1240   28.3210    5.1510 H     291  INH291      0.0296
     35  H5         2.6880   27.1510    6.6220 H     291  INH291      0.0499
     36  H6         3.5480   28.1700    8.6820 H     291  INH291      0.0296
     37  H7         4.9460   28.8830    7.8070 H     291  INH291      0.0296
     38  H8         5.6710   26.8710    9.0500 H     291  INH291      0.0444
     39  H9         4.4030   25.8870    8.2440 H     291  INH291      0.0444
     40  H10        3.2080   29.7870    5.3820 H     291  INH291      0.1492
     41  H11       -0.4910   28.1840    8.8630 H     291  INH291      0.0839
     42  H12       -4.0600   26.8640   12.1930 H     291  INH291      0.0648
     43  H13       -1.7190   27.5080   12.7840 H     291  INH291      0.0655
     44  H14        1.5710   28.7680   12.4280 H     291  INH291      0.0660
     45  H15        0.6130   27.4740   11.6330 H     291  INH291      0.0660
     46  H16        0.0450   28.1900   13.1790 H     291  INH291      0.0660
     47  H17        0.6610   33.2440    7.0770 H     291  INH291      0.1437
     48  H18       -0.7100   32.9690    8.1850 H     291  INH291      0.1437
     49  H19        6.9090   22.8650    7.9140 H     291  INH291      0.0479
     50  H20        5.5470   23.3700    6.8580 H     291  INH291      0.0479
     51  H21        5.5490   23.8180    8.5980 H     291  INH291      0.0479
@<TRIPOS>BOND
     1     1    27    1
     2     1     6    1
     3     1     2    1
     4     2    32    1
     5     2    31    1
     6     2     3    1
     7     3    34    1
     8     3    33    1
     9     3     4    1
    10     4    35    1
    11     4     7    1
    12     4     5    1
    13     5    37    1
    14     5    36    1
    15     5     6    1
    16     6    39    1
    17     6    38    1
    18     7    40    1
    19     7     8    1
    20     8    13   ar
    21     8     9   ar
    22     9    10   ar
    23    10    41    1
    24    10    11   ar
    25    11    14    1
    26    11    12   ar
    27    12    26    1
    28    12    13   ar
    29    14    16    1
    30    14    15    2
    31    16    21   ar
    32    16    17   ar
    33    17    24    1
    34    17    18   ar
    35    18    25    1
    36    18    19   ar
    37    19    42    1
    38    19    20   ar
    39    20    43    1
    40    20    21   ar
    41    21    22    1
    42    22    23    1
    43    23    46    1
    44    23    45    1
    45    23    44    1
    46    26    48    1
    47    26    47    1
    48    27    30    2
    49    27    29    2
    50    27    28    1
    51    28    51    1
    52    28    50    1
    53    28    49    1
