@<TRIPOS>MOLECULE
/tmp/ewbell/vina_2fvd_2fvd_lig/vina/vina4.pdbqt
 35 37 0 0 0
SMALL
GASTEIGER

@<TRIPOS>ATOM
      1  N2         3.0900   25.8040    9.6670 N.3   291  INH291     -0.2210
      2  C6         2.1640   26.8010    9.7650 C.3   291  INH291      0.6790
      3  N3         1.4310   27.1980    8.6900 N.pl3 291  INH291     -0.2010
      4  H3         1.5770   26.7530    7.7820 H     291  INH291      0.1830
      5  C7         0.5480   28.1400    8.8150 C.2   291  INH291      0.1250
      6  C8         0.2930   28.8140   10.0750 C.2   291  INH291      0.0750
      7  C9         1.0980   28.3700   11.1910 C.3   291  INH291      0.1300
      8  N4         2.0180   27.3660   11.0000 N.3   291  INH291     -0.1760
      9  H4         2.5920   27.0440   11.7790 H     291  INH291      0.1860
     10  H10        3.3200   25.1790   10.4520 H     291  INH291      0.1780
     11  C3         3.7320   25.6950    8.3500 C.3   291  INH291      0.1010
     12  C2         4.9640   26.6350    8.3380 C.3   291  INH291      0.0410
     13  C1         5.7760   26.4580    7.0370 C.3   291  INH291      0.1090
     14  N1         6.2090   25.0380    6.9110 N.3   291  INH291     -0.2110
     15  C5         5.0220   24.1430    6.7640 C.3   291  INH291      0.1090
     16  C4         4.1640   24.2190    8.0460 C.3   291  INH291      0.0410
     17  S1         7.2800   24.8490    5.6100 S.O2  291  INH291      0.2070
     18  O4         8.4780   25.5960    5.8820 O.2   291  INH291     -0.2120
     19  O3         7.6020   23.4440    5.5030 O.2   291  INH291     -0.2120
     20  C18        6.5600   25.4010    4.0220 C.3   291  INH291      0.1800
     21  N5         0.9940   28.8890   12.4280 N.3   291  INH291     -0.3840
     22  H18        1.7340   28.7160   13.1240 H     291  INH291      0.1570
     23  H17        0.1740   29.4600   12.6800 H     291  INH291      0.1570
     24  C10       -0.7240   29.8530   10.1510 C.2   291  INH291      0.2030
     25  O1        -0.4100   31.0290   10.4040 O.2   291  INH291     -0.2860
     26  C11       -2.1230   29.5460    9.9590 C.ar  291  INH291      0.0900
     27  C16       -2.8680   28.7380   10.9320 C.ar  291  INH291      0.0850
     28  C15       -4.2650   28.4550   10.6790 C.ar  291  INH291      0.0410
     29  C14       -4.9090   28.9480    9.5090 C.ar  291  INH291      0.0480
     30  C13       -4.1810   29.7350    8.5690 C.ar  291  INH291      0.1560
     31  C12       -2.8010   30.0340    8.7860 C.ar  291  INH291      0.1710
     32  F2        -4.7940   30.1870    7.4900 F     291  INH291     -0.2030
     33  F1        -2.1570   30.7730    7.8860 F     291  INH291     -0.2020
     34  O2        -2.1920   28.2740   12.0830 O.3   291  INH291     -0.3550
     35  C17       -2.2100   26.8300   12.2100 C.3   291  INH291      0.2100
@<TRIPOS>BOND
     1    20    17    1
     2    19    17    2
     3    17    18    2
     4    17    14    1
     5    15    14    1
     6    15    16    1
     7    14    13    1
     8    13    12    1
     9    32    30    1
    10     4     3    1
    11    33    31    1
    12    16    11    1
    13    12    11    1
    14    11     1    1
    15    30    31   ar
    16    30    29   ar
    17     3     5    1
    18     3     2    1
    19    31    26   ar
    20     5     6    2
    21    29    28   ar
    22     1     2    1
    23     1    10    1
    24     2     8    1
    25    26    24    1
    26    26    27   ar
    27     6    24    1
    28     6     7    1
    29    24    25    2
    30    28    27   ar
    31    27    34    1
    32     8     7    1
    33     8     9    1
    34     7    21    1
    35    34    35    1
    36    21    23    1
    37    21    22    1
