@<TRIPOS>MOLECULE
/tmp/ewbell/vina_2fvd_2fvd_lig/vina/vina1.pdbqt
 35 37 0 0 0
SMALL
GASTEIGER

@<TRIPOS>ATOM
      1  N2        -1.6130   24.6170   13.2260 N.3   291  INH291     -0.2210
      2  C6        -2.0170   25.6110   12.3830 C.3   291  INH291      0.6790
      3  N3        -3.0430   26.4430   12.7090 N.pl3 291  INH291     -0.2010
      4  H3        -3.5340   26.3240   13.5960 H     291  INH291      0.1830
      5  C7        -3.3980   27.3880   11.8930 C.2   291  INH291      0.1250
      6  C8        -2.7440   27.6110   10.6170 C.2   291  INH291      0.0750
      7  C9        -1.6650   26.7000   10.3050 C.3   291  INH291      0.1300
      8  N4        -1.3310   25.7170   11.2080 N.3   291  INH291     -0.1760
      9  H4        -0.5720   25.0690   10.9990 H     291  INH291      0.1860
     10  H10       -0.6390   24.2850   13.2690 H     291  INH291      0.1780
     11  C3        -2.6800   24.0580   14.0680 C.3   291  INH291      0.1010
     12  C2        -2.4720   22.5240   14.1480 C.3   291  INH291      0.0410
     13  C1        -3.4690   21.8880   15.1410 C.3   291  INH291      0.1090
     14  N1        -3.2920   22.5050   16.4860 N.3   291  INH291     -0.2110
     15  C5        -3.6440   23.9560   16.4440 C.3   291  INH291      0.1090
     16  C4        -2.6650   24.6910   15.5020 C.3   291  INH291      0.0410
     17  S1        -4.2160   21.6860   17.6490 S.O2  291  INH291      0.2070
     18  O4        -5.1920   20.8710   16.9780 O.2   291  INH291     -0.2120
     19  O3        -3.3230   20.8420   18.4100 O.2   291  INH291     -0.2120
     20  C18       -5.0610   22.8260   18.8030 C.3   291  INH291      0.1800
     21  N5        -0.9550   26.7610    9.1630 N.3   291  INH291     -0.3840
     22  H18       -0.0870   26.2150    9.0660 H     291  INH291      0.1570
     23  H17       -1.2800   27.3550    8.3870 H     291  INH291      0.1570
     24  C10       -3.1820   28.6990    9.7560 C.2   291  INH291      0.2030
     25  O1        -4.1020   28.5290    8.9380 O.2   291  INH291     -0.2860
     26  C11       -2.5460   29.9970    9.8080 C.ar  291  INH291      0.0900
     27  C16       -1.4090   30.3250    8.9420 C.ar  291  INH291      0.0850
     28  C15       -0.8070   31.6380    9.0490 C.ar  291  INH291      0.0410
     29  C14       -1.3060   32.5960    9.9760 C.ar  291  INH291      0.0480
     30  C13       -2.4150   32.2720   10.8120 C.ar  291  INH291      0.1560
     31  C12       -3.0330   30.9860   10.7350 C.ar  291  INH291      0.1710
     32  F2        -2.8680   33.1730   11.6650 F     291  INH291     -0.2030
     33  F1        -4.0660   30.7240   11.5310 F     291  INH291     -0.2020
     34  O2        -0.9480   29.3470    8.0320 O.3   291  INH291     -0.3550
     35  C17        0.3830   29.6210    7.5270 C.3   291  INH291      0.2100
@<TRIPOS>BOND
     1    35    34    1
     2    34    27    1
     3    23    21    1
     4    25    24    2
     5    27    28   ar
     6    27    26   ar
     7    28    29   ar
     8    22    21    1
     9    21     7    1
    10    24    26    1
    11    24     6    1
    12    26    31   ar
    13    29    30   ar
    14     7     6    1
    15     7     8    1
    16     6     5    2
    17    31    30   ar
    18    31    33    1
    19    30    32    1
    20     9     8    1
    21     8     2    1
    22     5     3    1
    23     2     3    1
    24     2     1    1
    25     3     4    1
    26     1    10    1
    27     1    11    1
    28    11    12    1
    29    11    16    1
    30    12    13    1
    31    13    14    1
    32    16    15    1
    33    15    14    1
    34    14    17    1
    35    18    17    2
    36    17    19    2
    37    17    20    1
