@<TRIPOS>MOLECULE
/tmp/ewbell/vina_2fvd_2fvd_lig/vina/vina5.pdbqt
 35 37 0 0 0
SMALL
GASTEIGER

@<TRIPOS>ATOM
      1  N2        -3.7650   24.6260   16.3930 N.3   291  INH291     -0.2210
      2  C6        -5.0620   24.8400   16.7590 C.3   291  INH291      0.6790
      3  N3        -6.0710   24.0640   16.2780 N.pl3 291  INH291     -0.2010
      4  H3        -5.8650   23.3100   15.6220 H     291  INH291      0.1830
      5  C7        -7.2940   24.2820   16.6520 C.2   291  INH291      0.1250
      6  C8        -7.6550   25.3380   17.5800 C.2   291  INH291      0.0750
      7  C9        -6.5560   26.1460   18.0600 C.3   291  INH291      0.1300
      8  N4        -5.2790   25.8680   17.6300 N.3   291  INH291     -0.1760
      9  H4        -4.4950   26.4300   17.9610 H     291  INH291      0.1860
     10  H10       -2.9700   24.8340   17.0150 H     291  INH291      0.1780
     11  C3        -3.5940   24.0760   15.0420 C.3   291  INH291      0.1010
     12  C2        -2.6560   25.0260   14.2540 C.3   291  INH291      0.0410
     13  C1        -2.3080   24.4300   12.8720 C.3   291  INH291      0.1090
     14  N1        -1.6640   23.0990   13.0530 N.3   291  INH291     -0.2110
     15  C5        -2.6230   22.1360   13.6720 C.3   291  INH291      0.1090
     16  C4        -2.9970   22.6270   15.0870 C.3   291  INH291      0.0410
     17  S1        -1.0750   22.5100   11.5750 S.O2  291  INH291      0.2070
     18  O4        -0.8350   21.0980   11.7000 O.2   291  INH291     -0.2120
     19  O3        -2.0900   22.7400   10.5720 O.2   291  INH291     -0.2120
     20  C18        0.4620   23.3490   11.0480 C.3   291  INH291      0.1800
     21  N5        -6.7120   27.1680   18.9200 N.3   291  INH291     -0.3840
     22  H18       -6.1580   28.0280   18.8050 H     291  INH291      0.1570
     23  H17       -7.3870   27.0900   19.6950 H     291  INH291      0.1570
     24  C10       -9.0460   25.5190   17.9700 C.2   291  INH291      0.2030
     25  O1        -9.5700   24.7710   18.8140 O.2   291  INH291     -0.2860
     26  C11       -9.8620   26.5520   17.3730 C.ar  291  INH291      0.0900
     27  C16      -10.1740   27.7900   18.0950 C.ar  291  INH291      0.0850
     28  C15      -11.0070   28.7840   17.4480 C.ar  291  INH291      0.0410
     29  C14      -11.5160   28.5670   16.1370 C.ar  291  INH291      0.0480
     30  C13      -11.2050   27.3620   15.4390 C.ar  291  INH291      0.1560
     31  C12      -10.3870   26.3600   16.0460 C.ar  291  INH291      0.1710
     32  F2       -11.6830   27.1780   14.2220 F     291  INH291     -0.2030
     33  F1       -10.1200   25.2510   15.3620 F     291  INH291     -0.2020
     34  O2        -9.6440   27.9690   19.3930 O.3   291  INH291     -0.3550
     35  C17      -10.5900   27.6480   20.4430 C.3   291  INH291      0.2100
@<TRIPOS>BOND
     1    19    17    2
     2    20    17    1
     3    17    18    2
     4    17    14    1
     5    13    14    1
     6    13    12    1
     7    14    15    1
     8    15    16    1
     9    32    30    1
    10    12    11    1
    11    11    16    1
    12    11     1    1
    13    33    31    1
    14    30    31   ar
    15    30    29   ar
    16     4     3    1
    17    31    26   ar
    18    29    28   ar
    19     3     5    1
    20     3     2    1
    21     1     2    1
    22     1    10    1
    23     5     6    2
    24     2     8    1
    25    26    24    1
    26    26    27   ar
    27    28    27   ar
    28     6    24    1
    29     6     7    1
    30     8     9    1
    31     8     7    1
    32    24    25    2
    33     7    21    1
    34    27    34    1
    35    22    21    1
    36    21    23    1
    37    34    35    1
