@<TRIPOS>MOLECULE
/tmp/ewbell/vina_2fvd_2fvd_lig/vina/vina2.pdbqt
 35 37 0 0 0
SMALL
GASTEIGER

@<TRIPOS>ATOM
      1  N2        -4.3200   24.5400   13.2370 N.3   291  INH291     -0.2210
      2  C6        -3.5990   25.6040   12.7800 C.3   291  INH291      0.6790
      3  N3        -2.3010   25.7910   13.1460 N.pl3 291  INH291     -0.2010
      4  H3        -1.8510   25.1330   13.7830 H     291  INH291      0.1830
      5  C7        -1.6360   26.8060   12.6860 C.2   291  INH291      0.1250
      6  C8        -2.2150   27.7790   11.7790 C.2   291  INH291      0.0750
      7  C9        -3.5980   27.5500   11.4230 C.3   291  INH291      0.1300
      8  N4        -4.2540   26.4570   11.9400 N.3   291  INH291     -0.1760
      9  H4        -5.2290   26.2850   11.6960 H     291  INH291      0.1860
     10  H10       -5.0750   24.1040   12.6900 H     291  INH291      0.1780
     11  C3        -3.9310   24.0670   14.5730 C.3   291  INH291      0.1010
     12  C2        -5.1700   24.1750   15.4980 C.3   291  INH291      0.0410
     13  C1        -4.8770   23.5520   16.8800 C.3   291  INH291      0.1090
     14  N1        -4.4830   22.1260   16.7090 N.3   291  INH291     -0.2110
     15  C5        -3.2010   22.0280   15.9490 C.3   291  INH291      0.1090
     16  C4        -3.4080   22.5900   14.5250 C.3   291  INH291      0.0410
     17  S1        -4.3630   21.3500   18.2130 S.O2  291  INH291      0.2070
     18  O4        -5.2400   20.2110   18.2200 O.2   291  INH291     -0.2120
     19  O3        -2.9960   20.9070   18.3730 O.2   291  INH291     -0.2120
     20  C18       -4.7820   22.4560   19.6070 C.3   291  INH291      0.1800
     21  N5        -4.2900   28.3570   10.5980 N.3   291  INH291     -0.3840
     22  H18       -5.3090   28.4580   10.7120 H     291  INH291      0.1570
     23  H17       -3.8010   28.8720    9.8520 H     291  INH291      0.1570
     24  C10       -1.4080   28.8860   11.2880 C.2   291  INH291      0.2030
     25  O1        -1.4290   29.9890   11.8610 O.2   291  INH291     -0.2860
     26  C11       -0.5800   28.7440   10.1110 C.ar  291  INH291      0.0900
     27  C16       -1.0780   29.1090    8.7800 C.ar  291  INH291      0.0850
     28  C15       -0.2050   28.9330    7.6380 C.ar  291  INH291      0.0410
     29  C14        1.1120   28.4160    7.7980 C.ar  291  INH291      0.0480
     30  C13        1.5910   28.0670    9.0950 C.ar  291  INH291      0.1560
     31  C12        0.7570   28.2270   10.2450 C.ar  291  INH291      0.1710
     32  F2         2.8150   27.5920    9.2270 F     291  INH291     -0.2030
     33  F1         1.2410   27.8910   11.4380 F     291  INH291     -0.2020
     34  O2        -2.3880   29.6240    8.6660 O.3   291  INH291     -0.3550
     35  C17       -2.4290   31.0710    8.6160 C.3   291  INH291      0.2100
@<TRIPOS>BOND
     1    28    29   ar
     2    28    27   ar
     3    29    30   ar
     4    35    34    1
     5    34    27    1
     6    27    26   ar
     7    30    32    1
     8    30    31   ar
     9    23    21    1
    10    26    31   ar
    11    26    24    1
    12    31    33    1
    13    21    22    1
    14    21     7    1
    15    24     6    1
    16    24    25    2
    17     7     6    1
    18     7     8    1
    19     9     8    1
    20     6     5    2
    21     8     2    1
    22     5     3    1
    23    10     1    1
    24     2     3    1
    25     2     1    1
    26     3     4    1
    27     1    11    1
    28    16    11    1
    29    16    15    1
    30    11    12    1
    31    12    13    1
    32    15    14    1
    33    14    13    1
    34    14    17    1
    35    17    18    2
    36    17    19    2
    37    17    20    1
