@<TRIPOS>MOLECULE
/tmp/ewbell/vina_2fvd_2fvd_lig/vina/vina3.pdbqt
 35 37 0 0 0
SMALL
GASTEIGER

@<TRIPOS>ATOM
      1  N2        -2.9820   24.2330   12.6340 N.3   291  INH291     -0.2210
      2  C6        -2.1980   25.2520   12.1790 C.3   291  INH291      0.6790
      3  N3        -1.7900   26.2550   13.0040 N.pl3 291  INH291     -0.2010
      4  H3        -2.0790   26.2590   13.9830 H     291  INH291      0.1830
      5  C7        -1.0340   27.2060   12.5470 C.2   291  INH291      0.1250
      6  C8        -0.5890   27.2610   11.1670 C.2   291  INH291      0.0750
      7  C9        -1.0520   26.1830   10.3220 C.3   291  INH291      0.1300
      8  N4        -1.8510   25.2010   10.8600 N.3   291  INH291     -0.1760
      9  H4        -2.1830   24.4350   10.2740 H     291  INH291      0.1860
     10  H10       -2.9420   23.2820   12.2400 H     291  INH291      0.1780
     11  C3        -3.8880   24.6000   13.7310 C.3   291  INH291      0.1010
     12  C2        -5.3040   24.8030   13.1350 C.3   291  INH291      0.0410
     13  C1        -6.3400   25.0430   14.2540 C.3   291  INH291      0.1090
     14  N1        -6.3350   23.8850   15.1920 N.3   291  INH291     -0.2110
     15  C5        -5.0160   23.7830   15.8860 C.3   291  INH291      0.1090
     16  C4        -3.9120   23.4970   14.8440 C.3   291  INH291      0.0410
     17  S1        -7.6040   24.0110   16.3100 S.O2  291  INH291      0.2070
     18  O4        -8.8420   23.7090   15.6430 O.2   291  INH291     -0.2120
     19  O3        -7.3700   23.0410   17.3560 O.2   291  INH291     -0.2120
     20  C18       -7.7070   25.6710   17.0700 C.3   291  INH291      0.1800
     21  N5        -0.7380   26.0820    9.0170 N.3   291  INH291     -0.3840
     22  H18       -1.4340   25.7280    8.3460 H     291  INH291      0.1570
     23  H17        0.1990   26.3580    8.6910 H     291  INH291      0.1570
     24  C10        0.2710   28.3490   10.7240 C.2   291  INH291      0.2030
     25  O1         1.4890   28.3340   10.9690 O.2   291  INH291     -0.2860
     26  C11       -0.2680   29.4850   10.0110 C.ar  291  INH291      0.0900
     27  C16        0.0260   29.7040    8.5900 C.ar  291  INH291      0.0850
     28  C15       -0.5340   30.8680    7.9330 C.ar  291  INH291      0.0410
     29  C14       -1.3540   31.7850    8.6490 C.ar  291  INH291      0.0480
     30  C13       -1.6400   31.5640   10.0290 C.ar  291  INH291      0.1560
     31  C12       -1.1040   30.4270   10.7090 C.ar  291  INH291      0.1710
     32  F2        -2.4050   32.4230   10.6770 F     291  INH291     -0.2030
     33  F1        -1.3950   30.2560   11.9960 F     291  INH291     -0.2020
     34  O2         0.8400   28.7670    7.9160 O.3   291  INH291     -0.3550
     35  C17        2.1270   29.3070    7.5250 C.3   291  INH291      0.2100
@<TRIPOS>BOND
     1    35    34    1
     2    34    27    1
     3    28    27   ar
     4    28    29   ar
     5    22    21    1
     6    27    26   ar
     7    29    30   ar
     8    23    21    1
     9    21     7    1
    10    26    31   ar
    11    26    24    1
    12    30    32    1
    13    30    31   ar
    14     9     8    1
    15     7     8    1
    16     7     6    1
    17    31    33    1
    18    24    25    2
    19    24     6    1
    20     8     2    1
    21     6     5    2
    22     2     1    1
    23     2     3    1
    24    10     1    1
    25     5     3    1
    26     1    11    1
    27     3     4    1
    28    12    11    1
    29    12    13    1
    30    11    16    1
    31    13    14    1
    32    16    15    1
    33    14    15    1
    34    14    17    1
    35    18    17    2
    36    17    20    1
    37    17    19    2
