@<TRIPOS>MOLECULE
./ligand/3b92_lig.pdb
 33 33 0 0 0
SMALL
GASTEIGER

@<TRIPOS>ATOM
      1  C1        -0.3850   60.4140   86.2240 C.ar  263  INH263     -0.0181
      2  C2        -0.6390   59.1310   85.7370 C.ar  263  INH263     -0.0334
      3  C3         1.2060   59.3620   84.1460 C.ar  263  INH263     -0.0334
      4  C4         1.4570   60.6490   84.6430 C.ar  263  INH263     -0.0181
      5  C5         0.6600   61.1780   85.6780 C.ar  263  INH263      0.1220
      6  O1         0.8750   62.5030   86.0710 O.3   263  INH263     -0.4795
      7  C6        -0.2580   63.2200   86.5630 C.3   263  INH263      0.1499
      8  C7        -3.0410   64.8880   83.7500 C.3   263  INH263     -0.0025
      9  C8        -2.0160   64.2960   84.7230 C.1   263  INH263     -0.1022
     10  C9        -1.2300   63.8330   85.4910 C.1   263  INH263     -0.0617
     11  C10        0.1540   58.6160   84.7000 C.ar  263  INH263      0.0884
     12  O2        -1.6420   56.8910   83.9960 O.2   263  INH263     -0.1694
     13  O3         0.5820   56.8300   82.8780 O.2   263  INH263     -0.1694
     14  S1        -0.2180   57.0230   84.0700 S.O2  263  INH263     -0.0030
     15  C11        0.3050   55.9790   85.4240 C.3   263  INH263      0.0716
     16  C12        1.6920   56.3580   85.9060 C.3   263  INH263     -0.0234
     17  C13        2.7660   55.7160   85.0470 C.3   263  INH263      0.0054
     18  S2         4.3340   56.5520   85.3070 S.3   263  INH263     -0.0931
     19  H1        -0.9940   60.8210   87.0230 H     263  INH263      0.0655
     20  H2        -1.4430   58.5370   86.1570 H     263  INH263      0.0638
     21  H3         1.8140   58.9510   83.3480 H     263  INH263      0.0638
     22  H4         2.2670   61.2390   84.2300 H     263  INH263      0.0655
     23  H5         0.1160   64.0470   87.1840 H     263  INH263      0.0837
     24  H6        -0.8440   62.5290   87.1870 H     263  INH263      0.0837
     25  H7        -2.5360   65.1790   82.8170 H     263  INH263      0.0362
     26  H8        -3.5100   65.7730   84.2050 H     263  INH263      0.0362
     27  H9        -3.8130   64.1370   83.5290 H     263  INH263      0.0362
     28  H10        0.3160   54.9320   85.0860 H     263  INH263      0.0504
     29  H11       -0.4060   56.0880   86.2560 H     263  INH263      0.0504
     30  H12        1.8150   56.0210   86.9460 H     263  INH263      0.0289
     31  H13        1.8020   57.4510   85.8600 H     263  INH263      0.0289
     32  H14        2.4820   55.7950   83.9870 H     263  INH263      0.0385
     33  H15        2.8680   54.6560   85.3220 H     263  INH263      0.0385
@<TRIPOS>BOND
     1     1     5   ar
     2     1    19    1
     3     1     2   ar
     4     2    20    1
     5     2    11   ar
     6     3    11   ar
     7     3    21    1
     8     3     4   ar
     9     4     5   ar
    10     4    22    1
    11     5     6    1
    12     6     7    1
    13     7    10    1
    14     7    24    1
    15     7    23    1
    16     8    27    1
    17     8    26    1
    18     8    25    1
    19     8     9    1
    20     9    10    3
    21    11    14    1
    22    12    14    2
    23    13    14    2
    24    14    15    1
    25    15    29    1
    26    15    28    1
    27    15    16    1
    28    16    31    1
    29    16    30    1
    30    16    17    1
    31    17    33    1
    32    17    32    1
    33    17    18    1
