@<TRIPOS>MOLECULE
/tmp/ewbell/vina_3b92_3b92_lig/vina/vina5.pdbqt
 19 19 0 0 0
SMALL
GASTEIGER

@<TRIPOS>ATOM
      1  C7        -1.7890   64.1580   84.6840 C.3   263  INH263      0.1120
      2  C8        -0.7510   63.0360   84.7830 C.1   263  INH263     -0.1090
      3  C9         0.0650   62.1690   84.8470 C.1   263  INH263     -0.0800
      4  C6         1.1710   61.0520   84.8550 C.3   263  INH263      0.2690
      5  O1         1.1510   60.1160   83.7770 O.3   263  INH263     -0.3400
      6  C5         0.3930   58.9550   83.9660 C.ar  263  INH263      0.0700
      7  C1        -0.7960   58.9720   84.7130 C.ar  263  INH263      0.0380
      8  C2        -1.5840   57.8230   84.7960 C.ar  263  INH263      0.0260
      9  C10       -1.1790   56.6580   84.1280 C.ar  263  INH263      0.0590
     10  C3         0.0090   56.6200   83.3810 C.ar  263  INH263      0.0260
     11  C4         0.7970   57.7780   83.3050 C.ar  263  INH263      0.0380
     12  S1        -2.2110   55.2430   84.2040 S.O2  263  INH263      0.1750
     13  O2        -2.2490   54.6440   82.9050 O.2   263  INH263     -0.2230
     14  O3        -1.7850   54.4560   85.3430 O.2   263  INH263     -0.2230
     15  C11       -3.8160   55.9930   84.4500 C.3   263  INH263      0.1460
     16  C12       -4.5940   55.2820   85.5400 C.3   263  INH263      0.0250
     17  C13       -5.2960   54.0500   85.0000 C.3   263  INH263      0.0710
     18  S2        -5.0740   52.6750   86.1340 S.3   263  INH263     -0.1820
     19  H         -6.1280   52.6220   86.9920 H     263  INH263      0.1010
@<TRIPOS>BOND
     1    13    12    2
     2    11    10   ar
     3    11     6   ar
     4    10     9   ar
     5     5     6    1
     6     5     4    1
     7     6     7   ar
     8     9    12    1
     9     9     8   ar
    10    12    15    1
    11    12    14    2
    12    15    16    1
    13     1     2    1
    14     7     8   ar
    15     2     3    3
    16     3     4    1
    17    17    16    1
    18    17    18    1
    19    18    19    1
