@<TRIPOS>MOLECULE
/tmp/ewbell/vina_3b92_3b92_lig/vina/vina3.pdbqt
 19 19 0 0 0
SMALL
GASTEIGER

@<TRIPOS>ATOM
      1  C7        -2.7580   65.2400   83.9220 C.3   263  INH263      0.1120
      2  C8        -1.7060   64.3420   84.5810 C.1   263  INH263     -0.1090
      3  C9        -0.8770   63.6500   85.0850 C.1   263  INH263     -0.0800
      4  C6         0.2760   62.7700   85.6920 C.3   263  INH263      0.2690
      5  O1         1.1050   62.0660   84.7680 O.3   263  INH263     -0.3400
      6  C5         0.9250   60.6810   84.6880 C.ar  263  INH263      0.0700
      7  C1         0.0680   60.0030   85.5710 C.ar  263  INH263      0.0380
      8  C2        -0.1720   58.6390   85.4010 C.ar  263  INH263      0.0260
      9  C10        0.4450   57.9560   84.3420 C.ar  263  INH263      0.0590
     10  C3         1.3090   58.6150   83.4530 C.ar  263  INH263      0.0260
     11  C4         1.5480   59.9850   83.6330 C.ar  263  INH263      0.0380
     12  S1         0.0870   56.2550   84.1180 S.O2  263  INH263      0.1750
     13  O2         0.9000   55.7630   83.0470 O.2   263  INH263     -0.2230
     14  O3         0.1560   55.6210   85.4180 O.2   263  INH263     -0.2230
     15  C11       -1.5810   56.3290   83.4780 C.3   263  INH263      0.1460
     16  C12       -2.2520   54.9700   83.5320 C.3   263  INH263      0.0250
     17  C13       -3.6130   55.0560   84.1970 C.3   263  INH263      0.0710
     18  S2        -4.0170   56.7720   84.5380 S.3   263  INH263     -0.1820
     19  H         -4.2310   56.9310   85.8710 H     263  INH263      0.1010
@<TRIPOS>BOND
     1    13    12    2
     2    10    11   ar
     3    10     9   ar
     4    15    16    1
     5    15    12    1
     6    16    17    1
     7    11     6   ar
     8     1     2    1
     9    12     9    1
    10    12    14    2
    11    17    18    1
    12     9     8   ar
    13    18    19    1
    14     2     3    3
    15     6     5    1
    16     6     7   ar
    17     5     4    1
    18     3     4    1
    19     8     7   ar
