@<TRIPOS>MOLECULE
/tmp/ewbell/vina_3b92_3b92_lig/vina/vina2.pdbqt
 19 19 0 0 0
SMALL
GASTEIGER

@<TRIPOS>ATOM
      1  C7        -3.0050   64.3600   82.7770 C.3   263  INH263      0.1120
      2  C8        -2.2770   64.1160   84.1020 C.1   263  INH263     -0.1090
      3  C9        -1.6960   63.9270   85.1260 C.1   263  INH263     -0.0800
      4  C6        -0.8560   63.6690   86.4300 C.3   263  INH263      0.2690
      5  O1         0.4150   63.0390   86.2650 O.3   263  INH263     -0.3400
      6  C5         0.4160   61.7680   85.6810 C.ar  263  INH263      0.0700
      7  C1         1.2340   61.4710   84.5780 C.ar  263  INH263      0.0380
      8  C2         1.2910   60.1670   84.0830 C.ar  263  INH263      0.0260
      9  C10        0.5290   59.1610   84.6970 C.ar  263  INH263      0.0590
     10  C3        -0.2980   59.4400   85.7960 C.ar  263  INH263      0.0260
     11  C4        -0.3530   60.7520   86.2850 C.ar  263  INH263      0.0380
     12  S1         0.6590   57.5220   84.0890 S.O2  263  INH263      0.1750
     13  O2         0.8900   57.5830   82.6780 O.2   263  INH263     -0.2230
     14  O3         1.5960   56.8170   84.9380 O.2   263  INH263     -0.2230
     15  C11       -1.0200   56.9400   84.2900 C.3   263  INH263      0.1460
     16  C12       -1.1920   55.5470   83.7140 C.3   263  INH263      0.0250
     17  C13       -1.0430   54.4870   84.7900 C.3   263  INH263      0.0710
     18  S2         0.0180   53.1650   84.1980 S.3   263  INH263     -0.1820
     19  H         -0.5540   51.9640   84.4810 H     263  INH263      0.1010
@<TRIPOS>BOND
     1    13    12    2
     2     1     2    1
     3    16    15    1
     4    16    17    1
     5     8     7   ar
     6     8     9   ar
     7    12    15    1
     8    12     9    1
     9    12    14    2
    10     2     3    3
    11    18    19    1
    12    18    17    1
    13     7     6   ar
    14     9    10   ar
    15     3     4    1
    16     6     5    1
    17     6    11   ar
    18    10    11   ar
    19     5     4    1
