@<TRIPOS>MOLECULE
/tmp/ewbell/vina_3b92_3b92_lig/vina/vina4.pdbqt
 19 19 0 0 0
SMALL
GASTEIGER

@<TRIPOS>ATOM
      1  C7        -0.4210   63.8570   86.8440 C.3   263  INH263      0.1120
      2  C8         0.1360   62.8000   85.8850 C.1   263  INH263     -0.1090
      3  C9         0.5550   61.9700   85.1390 C.1   263  INH263     -0.0800
      4  C6         1.0320   60.8330   84.1640 C.3   263  INH263      0.2690
      5  O1         1.6000   59.6670   84.7610 O.3   263  INH263     -0.3400
      6  C5         0.9900   58.4450   84.4610 C.ar  263  INH263      0.0700
      7  C1         1.5860   57.2230   84.8160 C.ar  263  INH263      0.0380
      8  C2         0.9060   56.0250   84.5970 C.ar  263  INH263      0.0260
      9  C10       -0.3750   56.0530   84.0240 C.ar  263  INH263      0.0590
     10  C3        -0.9850   57.2630   83.6570 C.ar  263  INH263      0.0260
     11  C4        -0.2930   58.4620   83.8770 C.ar  263  INH263      0.0380
     12  S1        -1.2310   54.5380   83.8070 S.O2  263  INH263      0.1750
     13  O2        -2.3300   54.7680   82.9190 O.2   263  INH263     -0.2230
     14  O3        -0.2480   53.5260   83.4820 O.2   263  INH263     -0.2230
     15  C11       -1.9470   54.3050   85.4280 C.3   263  INH263      0.1460
     16  C12       -3.4160   54.6820   85.4410 C.3   263  INH263      0.0250
     17  C13       -4.2490   53.6230   86.1400 C.3   263  INH263      0.0710
     18  S2        -4.1070   52.0620   85.2650 S.3   263  INH263     -0.1820
     19  H         -2.9000   51.4980   85.5370 H     263  INH263      0.1010
@<TRIPOS>BOND
     1    13    12    2
     2    14    12    2
     3    10    11   ar
     4    10     9   ar
     5    12     9    1
     6    12    15    1
     7    11     6   ar
     8     9     8   ar
     9     4     5    1
    10     4     3    1
    11     6     5    1
    12     6     7   ar
    13     8     7   ar
    14     3     2    3
    15    18    19    1
    16    18    17    1
    17    15    16    1
    18    16    17    1
    19     2     1    1
