@<TRIPOS>MOLECULE
/tmp/ewbell/vina_3b92_3b92_lig/vina/vina1.pdbqt
 19 19 0 0 0
SMALL
GASTEIGER

@<TRIPOS>ATOM
      1  C7        -2.8260   64.3410   82.9520 C.3   263  INH263      0.1120
      2  C8        -2.0880   64.1180   84.2760 C.1   263  INH263     -0.1090
      3  C9        -1.5070   63.9590   85.3050 C.1   263  INH263     -0.0800
      4  C6        -0.6980   63.8230   86.6460 C.3   263  INH263      0.2690
      5  O1         0.4440   62.9660   86.6260 O.3   263  INH263     -0.3400
      6  C5         0.3430   61.8010   85.8590 C.ar  263  INH263      0.0700
      7  C1         1.1180   61.6190   84.7010 C.ar  263  INH263      0.0380
      8  C2         1.0730   60.4040   84.0160 C.ar  263  INH263      0.0260
      9  C10        0.2520   59.3710   84.4930 C.ar  263  INH263      0.0590
     10  C3        -0.5340   59.5360   85.6440 C.ar  263  INH263      0.0260
     11  C4        -0.4860   60.7610   86.3260 C.ar  263  INH263      0.0380
     12  S1         0.2520   57.8370   83.6440 S.O2  263  INH263      0.1750
     13  O2        -1.0830   57.5710   83.1990 O.2   263  INH263     -0.2230
     14  O3         1.3330   57.8730   82.6820 O.2   263  INH263     -0.2230
     15  C11        0.5620   56.6950   84.9840 C.3   263  INH263      0.1460
     16  C12        2.0500   56.5050   85.2110 C.3   263  INH263      0.0250
     17  C13        2.4050   55.0340   85.3200 C.3   263  INH263      0.0710
     18  S2         1.9720   54.1890   83.7960 S.3   263  INH263     -0.1820
     19  H          0.8240   54.7190   83.2940 H     263  INH263      0.1010
@<TRIPOS>BOND
     1    14    12    2
     2     1     2    1
     3    13    12    2
     4    19    18    1
     5    12     9    1
     6    12    15    1
     7    18    17    1
     8     8     9   ar
     9     8     7   ar
    10     2     3    3
    11     9    10   ar
    12     7     6   ar
    13    15    16    1
    14    16    17    1
    15     3     4    1
    16    10    11   ar
    17     6    11   ar
    18     6     5    1
    19     5     4    1
