@<TRIPOS>MOLECULE
./ligand/2qbs_lig.pdb
 45 47 0 0 0
SMALL
GASTEIGER

@<TRIPOS>ATOM
      1  S1        44.6510   14.0740    0.6210 S.2   300  INH300     -0.0769
      2  C1        44.7900   15.4820    1.5710 C.ar  300  INH300      0.1436
      3  C2        45.6940   15.2460    2.6400 C.ar  300  INH300      0.1570
      4  C3        46.2290   13.9270    2.6200 C.ar  300  INH300      0.0751
      5  C4        45.7340   13.1350    1.5470 C.ar  300  INH300      0.0378
      6  C5        44.0570   16.6430    1.2480 C.2   300  INH300      0.3966
      7  O1        43.4980   16.6800    0.1500 O.co2 300  INH300     -0.2399
      8  O2        43.9810   17.5810    2.0360 O.co2 300  INH300     -0.2399
      9  C6        46.0160   11.7110    1.1830 C.ar  300  INH300     -0.0084
     10  C7        47.2610   11.0370    1.4450 C.ar  300  INH300     -0.0326
     11  C8        47.4050    9.6640    1.0720 C.ar  300  INH300      0.0279
     12  C9        46.3290    8.9560    0.4400 C.ar  300  INH300     -0.0408
     13  C10       45.0950    9.6130    0.1730 C.ar  300  INH300     -0.0594
     14  C11       44.9490   10.9800    0.5490 C.ar  300  INH300     -0.0534
     15 Br1        47.4770   13.3320    3.9450 Br    300  INH300     -0.0453
     16  O3        46.0630   16.1740    3.6490 O.3   300  INH300     -0.4781
     17  C12       47.2490   16.9320    3.4120 C.3   300  INH300      0.1902
     18  C13       47.6510   17.5920    4.7270 C.2   300  INH300      0.3927
     19  O4        46.8770   17.5250    5.6970 O.co2 300  INH300     -0.2425
     20  O5        48.7320   18.1660    4.7830 O.co2 300  INH300     -0.2425
     21  N1        48.6210    8.9650    1.3420 N.pl3 300  INH300     -0.3410
     22  C14       49.1550    7.7650    1.8570 C.3   300  INH300      0.0206
     23  C15       50.6800    7.8220    2.0380 C.3   300  INH300     -0.0346
     24  C16       51.1580    6.4520    2.5800 C.3   300  INH300     -0.0514
     25  C17       50.4280    6.0460    3.8930 C.3   300  INH300     -0.0529
     26  C18       48.8790    6.1190    3.7780 C.3   300  INH300     -0.0514
     27  C19       48.4240    7.4700    3.1930 C.3   300  INH300     -0.0346
     28  H1        48.0800   11.5650    1.9200 H     300  INH300      0.0642
     29  H2        46.4570    7.9150    0.1640 H     300  INH300      0.0636
     30  H3        44.2810    9.0830   -0.3080 H     300  INH300      0.0618
     31  H4        44.0090   11.4830    0.3520 H     300  INH300      0.0624
     32  H5        47.0550   17.7020    2.6510 H     300  INH300      0.0817
     33  H6        48.0540   16.2680    3.0650 H     300  INH300      0.0817
     34  H7        49.4060    9.5650    1.0500 H     300  INH300      0.1463
     35  H8        48.9350    6.9530    1.1490 H     300  INH300      0.0497
     36  H9        50.9400    8.6160    2.7530 H     300  INH300      0.0283
     37  H10       51.1620    8.0280    1.0710 H     300  INH300      0.0283
     38  H11       52.2380    6.5080    2.7790 H     300  INH300      0.0266
     39  H12       50.9660    5.6830    1.8170 H     300  INH300      0.0266
     40  H13       50.7510    6.7230    4.6970 H     300  INH300      0.0265
     41  H14       50.7120    5.0140    4.1470 H     300  INH300      0.0265
     42  H15       48.4390    5.9960    4.7790 H     300  INH300      0.0266
     43  H16       48.5300    5.3080    3.1210 H     300  INH300      0.0266
     44  H17       47.3400    7.4380    3.0110 H     300  INH300      0.0283
     45  H18       48.6520    8.2700    3.9130 H     300  INH300      0.0283
@<TRIPOS>BOND
     1     1     5   ar
     2     1     2   ar
     3     2     6    1
     4     2     3   ar
     5     3    16    1
     6     3     4   ar
     7     4    15    1
     8     4     5   ar
     9     5     9    1
    10     6     8   ar
    11     6     7   ar
    12     9    14   ar
    13     9    10   ar
    14    10    28    1
    15    10    11   ar
    16    11    21    1
    17    11    12   ar
    18    12    29    1
    19    12    13   ar
    20    13    30    1
    21    13    14   ar
    22    14    31    1
    23    16    17    1
    24    17    33    1
    25    17    32    1
    26    17    18    1
    27    18    20   ar
    28    18    19   ar
    29    21    34    1
    30    21    22    1
    31    22    35    1
    32    22    27    1
    33    22    23    1
    34    23    37    1
    35    23    36    1
    36    23    24    1
    37    24    39    1
    38    24    38    1
    39    24    25    1
    40    25    41    1
    41    25    40    1
    42    25    26    1
    43    26    43    1
    44    26    42    1
    45    26    27    1
    46    27    45    1
    47    27    44    1
