@<TRIPOS>MOLECULE
/tmp/ewbell/vina_2qbs_2qbs_lig/vina/vina1.pdbqt
 30 32 0 0 0
SMALL
GASTEIGER

@<TRIPOS>ATOM
      1  S1        44.6960   13.9940    0.7020 S.2   300  INH300     -0.0790
      2  C1        44.6890   15.4660    1.5620 C.ar  300  INH300      0.1140
      3  C2        45.5510   15.3650    2.6850 C.ar  300  INH300      0.1120
      4  C3        46.1770   14.0890    2.7780 C.ar  300  INH300      0.0640
      5  C4        45.7930   13.1970    1.7380 C.ar  300  INH300      0.0360
      6 Br1        47.3930   13.6710    4.1970 Br    300  INH300     -0.0470
      7  C6        46.1910   11.7770    1.4840 C.ar  300  INH300     -0.0150
      8  C11       45.2740   10.9740    0.7160 C.ar  300  INH300      0.0130
      9  C10       45.5380    9.6040    0.4250 C.ar  300  INH300      0.0030
     10  C9        46.7380    9.0170    0.9160 C.ar  300  INH300      0.0290
     11  C8        47.6650    9.7970    1.6840 C.ar  300  INH300      0.0290
     12  C7        47.4040   11.1740    1.9720 C.ar  300  INH300      0.0420
     13  N1        48.8490    9.1680    2.1770 N.pl3 300  INH300     -0.3850
     14  H7        49.6140    9.3640    1.5150 H     300  INH300      0.1600
     15  C14       49.3680    8.3790    3.2250 C.3   300  INH300      0.0810
     16  C19       50.8820    8.1850    2.9500 C.3   300  INH300      0.0250
     17  C18       51.5520    7.4120    4.1030 C.3   300  INH300      0.0020
     18  C17       50.8040    6.0830    4.4030 C.3   300  INH300      0.0000
     19  C16       49.2670    6.2690    4.5660 C.3   300  INH300      0.0020
     20  C15       48.6360    7.0360    3.3780 C.3   300  INH300      0.0250
     21  C5        43.8960   16.5490    1.1280 C.2   300  INH300      0.1860
     22  O2        43.3620   16.5370    0.0220 O.2   300  INH300     -0.6460
     23  O1        43.7570   17.5020    1.8970 O.3   300  INH300     -0.7720
     24  H         44.5100   17.9090    2.2780 H     300  INH300      0.1670
     25  O3        45.8030   16.3790    3.6460 O.3   300  INH300     -0.3380
     26  C12       46.9730   17.1700    3.4440 C.3   300  INH300      0.2850
     27  C13       47.5640   17.4880    4.8130 C.2   300  INH300      0.1640
     28  O5        46.8140   17.4940    5.7830 O.2   300  INH300     -0.6480
     29  O4        48.7780   17.7350    4.9040 O.3   300  INH300     -0.7750
     30  H         49.1000   18.2400    5.6240 H     300  INH300      0.1670
@<TRIPOS>BOND
     1    22    21    2
     2     9     8   ar
     3     9    10   ar
     4     1     2   ar
     5     1     5   ar
     6     8     7   ar
     7    10    11   ar
     8    21     2    1
     9    21    23    1
    10     7     5    1
    11     7    12   ar
    12    14    13    1
    13     2     3   ar
    14    11    12   ar
    15    11    13    1
    16     5     4   ar
    17    23    24    1
    18    13    15    1
    19     3     4   ar
    20     3    25    1
    21     4     6    1
    22    16    15    1
    23    16    17    1
    24    15    20    1
    25    20    19    1
    26    26    25    1
    27    26    27    1
    28    17    18    1
    29    18    19    1
    30    27    29    1
    31    27    28    2
    32    29    30    1
