@<TRIPOS>MOLECULE
/tmp/ewbell/vina_2qbs_2qbs_lig/vina/vina5.pdbqt
 30 32 0 0 0
SMALL
GASTEIGER

@<TRIPOS>ATOM
      1  S1        44.5400   14.2910    0.6560 S.2   300  INH300     -0.0790
      2  C1        44.7520   15.5970    1.7300 C.ar  300  INH300      0.1140
      3  C2        45.6640   15.2280    2.7540 C.ar  300  INH300      0.1120
      4  C3        46.1470   13.8980    2.5980 C.ar  300  INH300      0.0640
      5  C4        45.6020   13.2290    1.4670 C.ar  300  INH300      0.0360
      6 Br1        47.3930   13.1340    3.8360 Br    300  INH300     -0.0470
      7  C6        45.8210   11.8360    0.9660 C.ar  300  INH300     -0.0150
      8  C11       47.1650   11.3250    1.0390 C.ar  300  INH300      0.0130
      9  C10       47.4980   10.0190    0.5750 C.ar  300  INH300      0.0030
     10  C9        46.4710    9.2050    0.0210 C.ar  300  INH300      0.0290
     11  C8        45.1250    9.6940   -0.0630 C.ar  300  INH300      0.0290
     12  C7        44.7890   11.0030    0.4060 C.ar  300  INH300      0.0420
     13  N1        44.1250    8.8560   -0.6440 N.pl3 300  INH300     -0.3850
     14  H7        43.3980    8.6860    0.0650 H     300  INH300      0.1600
     15  C14       43.7550    8.1730   -1.8210 C.3   300  INH300      0.0810
     16  C19       44.6990    8.6580   -2.9530 C.3   300  INH300      0.0250
     17  C18       44.4280    7.8880   -4.2600 C.3   300  INH300      0.0020
     18  C17       42.9230    7.9410   -4.6460 C.3   300  INH300      0.0000
     19  C16       41.9770    7.5590   -3.4710 C.3   300  INH300      0.0020
     20  C15       42.2750    8.3690   -2.1850 C.3   300  INH300      0.0250
     21  C5        44.0600   16.8110    1.5330 C.2   300  INH300      0.1860
     22  O2        43.0520   16.8560    0.8330 O.2   300  INH300     -0.6460
     23  O1        44.5010   17.8190    2.0870 O.3   300  INH300     -0.7720
     24  H         44.2060   18.0480    2.9470 H     300  INH300      0.1670
     25  O3        46.0880   16.0420    3.8360 O.3   300  INH300     -0.3380
     26  C12       47.3470   16.6960    3.6860 C.3   300  INH300      0.2850
     27  C13       47.6360   17.4540    4.9770 C.2   300  INH300      0.1640
     28  O5        46.7680   17.4810    5.8430 O.2   300  INH300     -0.6480
     29  O4        48.7330   18.0210    5.1100 O.3   300  INH300     -0.7750
     30  H         49.1840   17.9830    5.9310 H     300  INH300      0.1670
@<TRIPOS>BOND
     1    18    17    1
     2    18    19    1
     3    17    16    1
     4    19    20    1
     5    16    15    1
     6    20    15    1
     7    15    13    1
     8    13    11    1
     9    13    14    1
    10    11    10   ar
    11    11    12   ar
    12    10     9   ar
    13    12     7   ar
    14     9     8   ar
    15     1     5   ar
    16     1     2   ar
    17    22    21    2
    18     7     8   ar
    19     7     5    1
    20     5     4   ar
    21    21     2    1
    22    21    23    1
    23     2     3   ar
    24    23    24    1
    25     4     3   ar
    26     4     6    1
    27     3    25    1
    28    26    25    1
    29    26    27    1
    30    27    29    1
    31    27    28    2
    32    29    30    1
