@<TRIPOS>MOLECULE
/tmp/ewbell/vina_2qbs_2qbs_lig/vina/vina3.pdbqt
 30 32 0 0 0
SMALL
GASTEIGER

@<TRIPOS>ATOM
      1  S1        45.7940   11.2250   -1.1630 S.2   300  INH300     -0.0790
      2  C1        45.4050    9.9240   -2.1930 C.ar  300  INH300      0.1140
      3  C2        44.2840   10.2690   -2.9930 C.ar  300  INH300      0.1120
      4  C3        43.8100   11.5840   -2.7260 C.ar  300  INH300      0.0640
      5  C4        44.5480   12.2550   -1.7120 C.ar  300  INH300      0.0360
      6 Br1        42.3070   12.3160   -3.6610 Br    300  INH300     -0.0470
      7  C6        44.3670   13.6180   -1.1210 C.ar  300  INH300     -0.0150
      8  C11       44.0190   14.6780   -2.0310 C.ar  300  INH300      0.0130
      9  C10       43.8380   16.0200   -1.5870 C.ar  300  INH300      0.0030
     10  C9        44.0130   16.3150   -0.2050 C.ar  300  INH300      0.0290
     11  C8        44.3610   15.2750    0.7190 C.ar  300  INH300      0.0290
     12  C7        44.5380   13.9270    0.2750 C.ar  300  INH300      0.0420
     13  N1        44.5480   15.6130    2.0940 N.pl3 300  INH300     -0.3850
     14  H7        43.6190   15.7300    2.5240 H     300  INH300      0.1600
     15  C14       45.5220   15.8480    3.0870 C.3   300  INH300      0.0810
     16  C19       46.0390   17.2980    2.8930 C.3   300  INH300      0.0250
     17  C18       47.0410   17.6740    4.0010 C.3   300  INH300      0.0020
     18  C17       48.1820   16.6230    4.1130 C.3   300  INH300      0.0000
     19  C16       47.6580   15.1600    4.1950 C.3   300  INH300      0.0020
     20  C15       46.6670   14.8230    3.0530 C.3   300  INH300      0.0250
     21  C5        46.1520    8.7280   -2.1550 C.2   300  INH300      0.1860
     22  O2        46.8760    8.4660   -1.1980 O.2   300  INH300     -0.6460
     23  O1        46.0520    7.9590   -3.1130 O.3   300  INH300     -0.7720
     24  H         45.5350    7.1810   -3.0370 H     300  INH300      0.1670
     25  O3        43.6590    9.4450   -3.9650 O.3   300  INH300     -0.3380
     26  C12       42.4030    8.8740   -3.6020 C.3   300  INH300      0.2850
     27  C13       42.6810    7.6530   -2.7320 C.2   300  INH300      0.1640
     28  O5        43.1750    6.6630   -3.2590 O.2   300  INH300     -0.6480
     29  O4        42.3960    7.6960   -1.5230 O.3   300  INH300     -0.7750
     30  H         42.1010    8.4990   -1.1400 H     300  INH300      0.1670
@<TRIPOS>BOND
     1    25    26    1
     2    25     3    1
     3     6     4    1
     4    26    27    1
     5    28    27    2
     6    23    24    1
     7    23    21    1
     8     3     4   ar
     9     3     2   ar
    10    27    29    1
    11     4     5   ar
    12     2    21    1
    13     2     1   ar
    14    21    22    2
    15     8     9   ar
    16     8     7   ar
    17     5     1   ar
    18     5     7    1
    19     9    10   ar
    20    29    30    1
    21     7    12   ar
    22    10    11   ar
    23    12    11   ar
    24    11    13    1
    25    13    14    1
    26    13    15    1
    27    16    15    1
    28    16    17    1
    29    20    15    1
    30    20    19    1
    31    17    18    1
    32    18    19    1
