@<TRIPOS>MOLECULE
/tmp/ewbell/vina_2qbs_2qbs_lig/vina/vina4.pdbqt
 30 32 0 0 0
SMALL
GASTEIGER

@<TRIPOS>ATOM
      1  S1        50.7720    8.2550    3.1900 S.2   300  INH300     -0.0790
      2  C1        51.4430    6.9930    4.1190 C.ar  300  INH300      0.1140
      3  C2        50.7130    5.7960    3.8930 C.ar  300  INH300      0.1120
      4  C3        49.6480    5.9760    2.9650 C.ar  300  INH300      0.0640
      5  C4        49.5410    7.3090    2.4810 C.ar  300  INH300      0.0360
      6 Br1        48.4960    4.5270    2.4710 Br    300  INH300     -0.0470
      7  C6        48.5620    7.9190    1.5280 C.ar  300  INH300     -0.0150
      8  C11       48.4680    7.3180    0.2220 C.ar  300  INH300      0.0130
      9  C10       47.5840    7.8230   -0.7750 C.ar  300  INH300      0.0030
     10  C9        46.7790    8.9560   -0.4680 C.ar  300  INH300      0.0290
     11  C8        46.8560    9.5710    0.8260 C.ar  300  INH300      0.0290
     12  C7        47.7400    9.0620    1.8280 C.ar  300  INH300      0.0420
     13  N1        46.0480   10.7180    1.0900 N.pl3 300  INH300     -0.3850
     14  H7        45.0740   10.4030    1.2080 H     300  INH300      0.1600
     15  C14       46.0760   12.1190    1.2500 C.3   300  INH300      0.0810
     16  C19       46.8390   12.4180    2.5670 C.3   300  INH300      0.0250
     17  C18       47.0030   13.9360    2.7720 C.3   300  INH300      0.0020
     18  C17       45.6360   14.6710    2.6700 C.3   300  INH300      0.0000
     19  C16       44.8260   14.2820    1.4000 C.3   300  INH300      0.0020
     20  C15       44.6740   12.7480    1.2440 C.3   300  INH300      0.0250
     21  C5        52.5510    7.2290    4.9590 C.2   300  INH300      0.1860
     22  O2        52.8400    8.3660    5.3190 O.2   300  INH300     -0.6460
     23  O1        53.2160    6.2550    5.3180 O.3   300  INH300     -0.7720
     24  H         53.0350    5.4070    4.9600 H     300  INH300      0.1670
     25  O3        50.9610    4.5340    4.4920 O.3   300  INH300     -0.3380
     26  C12       50.2390    4.2450    5.6890 C.3   300  INH300      0.2850
     27  C13       51.2550    3.9320    6.7820 C.2   300  INH300      0.1640
     28  O5        51.5420    2.7590    6.9920 O.2   300  INH300     -0.6480
     29  O4        51.7550    4.8700    7.4270 O.3   300  INH300     -0.7750
     30  H         52.6860    4.9370    7.5100 H     300  INH300      0.1670
@<TRIPOS>BOND
     1     9    10   ar
     2     9     8   ar
     3    10    11   ar
     4     8     7   ar
     5    11    13    1
     6    11    12   ar
     7    13    14    1
     8    13    15    1
     9    20    15    1
    10    20    19    1
    11    15    16    1
    12    19    18    1
    13     7    12   ar
    14     7     5    1
    15     6     4    1
    16     5     4   ar
    17     5     1   ar
    18    16    17    1
    19    18    17    1
    20     4     3   ar
    21     1     2   ar
    22     3     2   ar
    23     3    25    1
    24     2    21    1
    25    25    26    1
    26    21    23    1
    27    21    22    2
    28    24    23    1
    29    26    27    1
    30    27    28    2
    31    27    29    1
    32    29    30    1
