@<TRIPOS>MOLECULE
/tmp/ewbell/vina_2qbs_2qbs_lig/vina/vina2.pdbqt
 30 32 0 0 0
SMALL
GASTEIGER

@<TRIPOS>ATOM
      1  S1        44.3210   15.0870    1.0570 S.2   300  INH300     -0.0790
      2  C1        45.0820   15.8740    2.3630 C.ar  300  INH300      0.1140
      3  C2        45.9950   14.9840    2.9880 C.ar  300  INH300      0.1120
      4  C3        46.0280   13.7080    2.3590 C.ar  300  INH300      0.0640
      5  C4        45.1340   13.6000    1.2570 C.ar  300  INH300      0.0360
      6 Br1        47.1720   12.3080    2.9920 Br    300  INH300     -0.0470
      7  C6        44.8440   12.4430    0.3540 C.ar  300  INH300     -0.0150
      8  C11       44.7650   11.1430    0.9700 C.ar  300  INH300      0.0130
      9  C10       44.5120    9.9650    0.2090 C.ar  300  INH300      0.0030
     10  C9        44.3400   10.0820   -1.2000 C.ar  300  INH300      0.0290
     11  C8        44.4170   11.3660   -1.8350 C.ar  300  INH300      0.0290
     12  C7        44.6660   12.5490   -1.0710 C.ar  300  INH300      0.0420
     13  N1        44.2590   11.4410   -3.2520 N.pl3 300  INH300     -0.3850
     14  H7        45.1810   11.6440   -3.6660 H     300  INH300      0.1600
     15  C14       43.3210   11.3410   -4.3010 C.3   300  INH300      0.0810
     16  C19       41.9100   11.4750   -3.6720 C.3   300  INH300      0.0250
     17  C18       40.8220   11.4750   -4.7640 C.3   300  INH300      0.0020
     18  C17       40.9650   10.2450   -5.7040 C.3   300  INH300      0.0000
     19  C16       42.4120   10.0520   -6.2430 C.3   300  INH300      0.0020
     20  C15       43.4680   10.0430   -5.1100 C.3   300  INH300      0.0250
     21  C5        44.7610   17.2100    2.6840 C.2   300  INH300      0.1860
     22  O2        44.6390   18.0590    1.8050 O.2   300  INH300     -0.6460
     23  O1        44.6070   17.4920    3.8740 O.3   300  INH300     -0.7720
     24  H         43.7510   17.4670    4.2540 H     300  INH300      0.1670
     25  O3        46.8100   15.2700    4.1150 O.3   300  INH300     -0.3380
     26  C12       47.9180   16.1410    3.8930 C.3   300  INH300      0.2850
     27  C13       47.8270   17.2780    4.9050 C.2   300  INH300      0.1640
     28  O5        46.8250   17.3530    5.6070 O.2   300  INH300     -0.6480
     29  O4        48.7640   18.0910    4.9850 O.3   300  INH300     -0.7750
     30  H         49.5280   17.8770    5.4850 H     300  INH300      0.1670
@<TRIPOS>BOND
     1    19    18    1
     2    19    20    1
     3    18    17    1
     4    20    15    1
     5    17    16    1
     6    15    16    1
     7    15    13    1
     8    14    13    1
     9    13    11    1
    10    11    10   ar
    11    11    12   ar
    12    10     9   ar
    13    12     7   ar
    14     9     8   ar
    15     7     8   ar
    16     7     5    1
    17     1     5   ar
    18     1     2   ar
    19     5     4   ar
    20    22    21    2
    21     4     3   ar
    22     4     6    1
    23     2    21    1
    24     2     3   ar
    25    21    23    1
    26     3    25    1
    27    23    24    1
    28    26    25    1
    29    26    27    1
    30    27    29    1
    31    27    28    2
    32    29    30    1
