@<TRIPOS>MOLECULE
./ligand/1q0y_lig.pdb
 41 45 0 0 0
SMALL
GASTEIGER

@<TRIPOS>ATOM
      1  C1        52.8890   56.8760    6.1110 C.ar  434  INH434     -0.0544
      2  C2        52.5930   58.1250    8.4580 C.3   434  INH434      0.0165
      3  C3        53.2920   57.1470    7.4540 C.ar  434  INH434     -0.0345
      4  C4        54.4900   56.5430    7.8880 C.ar  434  INH434      0.0120
      5  C5        55.1400   56.6710    9.2600 C.3   434  INH434      0.0553
      6  C6        54.9390   58.1620    9.7370 C.3   434  INH434      0.0339
      7  C7        54.4840   55.6710   10.2810 C.3   434  INH434      0.0015
      8  C8        53.0400   56.0110   10.6270 C.3   434  INH434     -0.0309
      9  C9        51.4230   57.6200   11.2530 C.3   434  INH434     -0.0428
     10  C10       53.7020   56.0510    5.2800 C.ar  434  INH434     -0.0162
     11  C11       54.9400   55.4710    5.7450 C.ar  434  INH434      0.1588
     12  C12       55.2910   55.7590    7.0820 C.ar  434  INH434      0.1663
     13  C13       56.5980   56.2270    8.9510 C.3   434  INH434      0.1402
     14  C14       57.5830   57.4250    8.7280 C.3   434  INH434      0.1110
     15  C15       56.9040   58.7460    8.2850 C.2   434  INH434     -0.0558
     16  C16       55.6710   59.0940    8.7390 C.2   434  INH434     -0.0761
     17  C17       53.3540   58.3770    9.8800 C.3   434  INH434     -0.0097
     18  N1        52.8620   57.4380   10.9780 N.4   434  INH434      0.2359
     19  O1        55.7070   54.7040    4.9260 O.3   434  INH434     -0.5033
     20  O2        58.5770   57.0990    7.7730 O.3   434  INH434     -0.3841
     21  O3        56.4530   55.3360    7.7490 O.3   434  INH434     -0.4811
     22  H1        51.9680   57.2960    5.7250 H     434  INH434      0.0622
     23  H2        51.5950   57.7180    8.6810 H     434  INH434      0.0368
     24  H3        52.4890   59.0990    7.9580 H     434  INH434      0.0368
     25  H4        55.3960   58.3030   10.7270 H     434  INH434      0.0408
     26  H5        55.0760   55.6830   11.2080 H     434  INH434      0.0327
     27  H6        54.5080   54.6620    9.8440 H     434  INH434      0.0327
     28  H7        52.7280   55.3960   11.4840 H     434  INH434      0.0815
     29  H8        52.4050   55.7790    9.7590 H     434  INH434      0.0815
     30  H9        51.2310   58.6690   11.5210 H     434  INH434      0.0778
     31  H10       51.1240   56.9680   12.0870 H     434  INH434      0.0778
     32  H11       50.8420   57.3590   10.3560 H     434  INH434      0.0778
     33  H12       53.3800   55.8520    4.2640 H     434  INH434      0.0655
     34  H13       56.9850   55.6370    9.7950 H     434  INH434      0.0772
     35  H14       58.0800   57.6150    9.6910 H     434  INH434      0.0675
     36  H15       57.4250   59.4090    7.5960 H     434  INH434      0.0596
     37  H16       55.2020   60.0180    8.4050 H     434  INH434      0.0575
     38  H17       53.1600   59.4150   10.1900 H     434  INH434      0.0860
     39  H18       53.3870   57.6380   11.8150 H     434  INH434      0.2034
     40  H19       55.2910   54.6360    4.0750 H     434  INH434      0.2923
     41  H20       59.1600   57.8400    7.6570 H     434  INH434      0.2104
@<TRIPOS>BOND
     1     1    22    1
     2     1    10   ar
     3     1     3   ar
     4     2     3    1
     5     2    24    1
     6     2    23    1
     7     2    17    1
     8     3     4   ar
     9     4     5    1
    10     4    12   ar
    11     5     6    1
    12     5    13    1
    13     5     7    1
    14     6    17    1
    15     6    25    1
    16     6    16    1
    17     7    27    1
    18     7    26    1
    19     7     8    1
    20     8    29    1
    21     8    28    1
    22     8    18    1
    23     9    18    1
    24     9    32    1
    25     9    31    1
    26     9    30    1
    27    10    11   ar
    28    10    33    1
    29    11    12   ar
    30    11    19    1
    31    12    21    1
    32    13    21    1
    33    13    34    1
    34    13    14    1
    35    14    35    1
    36    14    20    1
    37    14    15    1
    38    15    36    1
    39    15    16    2
    40    16    37    1
    41    17    38    1
    42    17    18    1
    43    18    39    1
    44    19    40    1
    45    20    41    1
