@<TRIPOS>MOLECULE
/tmp/ewbell/vina_1q0y_1q0y_lig/vina/vina2.pdbqt
 24 28 0 0 0
SMALL
GASTEIGER

@<TRIPOS>ATOM
      1  C1        52.1750   56.4440    5.9440 C.ar  434  INH434      0.0110
      2  C2        52.1080   57.8750    8.2030 C.3   434  INH434      0.0730
      3  C3        52.7550   56.8910    7.1700 C.ar  434  INH434     -0.0460
      4  C4        54.0770   56.4750    7.4320 C.ar  434  INH434     -0.0030
      5  C5        54.9210   56.8120    8.6550 C.3   434  INH434      0.0300
      6  C6        54.6070   58.3090    9.0430 C.3   434  INH434      0.0550
      7  C7        54.5790   55.8480    9.8490 C.3   434  INH434      0.0450
      8  C8        53.1800   56.0500   10.4160 C.3   434  INH434      0.2360
      9  C9        51.4910   57.5140   11.1910 C.3   434  INH434      0.2700
     10  C10       52.9410   55.6410    5.0490 C.ar  434  INH434      0.0400
     11  C11       54.3040   55.2580    5.3320 C.ar  434  INH434      0.0990
     12  C12       54.8300   55.7140    6.5610 C.ar  434  INH434      0.1100
     13  C13       56.3540   56.5120    8.1290 C.3   434  INH434      0.1750
     14  C14       57.1230   57.7890    7.6450 C.3   434  INH434      0.1710
     15  C15       56.2130   58.9720    7.2280 C.2   434  INH434      0.0030
     16  C16       55.0360   59.2170    7.8640 C.2   434  INH434     -0.0200
     17  C17       53.0530   58.3520    9.4460 C.3   434  INH434      0.2000
     18  N1        52.8760   57.4740   10.6820 N.4   434  INH434     -0.0700
     19  O3        56.1310   55.4970    7.0440 O.3   434  INH434     -0.3380
     20  H18       53.5010   57.8150   11.3960 H     434  INH434      0.2790
     21  O1        55.0200   54.5080    4.4530 O.3   434  INH434     -0.3580
     22  H19       55.9380   54.5250    4.6960 H     434  INH434      0.2170
     23  O2        57.9800   57.4880    6.5590 O.3   434  INH434     -0.3890
     24  H20       57.7920   58.0750    5.8360 H     434  INH434      0.2100
@<TRIPOS>BOND
     1    21    22    1
     2    21    11    1
     3    10    11   ar
     4    10     1   ar
     5    11    12   ar
     6    24    23    1
     7     1     3   ar
     8    23    14    1
     9    12    19    1
    10    12     4   ar
    11    19    13    1
    12     3     4   ar
    13     3     2    1
    14    15    14    1
    15    15    16    2
    16     4     5    1
    17    14    13    1
    18    16     6    1
    19    13     5    1
    20     2    17    1
    21     5     6    1
    22     5     7    1
    23     6    17    1
    24    17    18    1
    25     7     8    1
    26     8    18    1
    27    18     9    1
    28    18    20    1
