@<TRIPOS>MOLECULE
/tmp/ewbell/vina_1q0y_1q0y_lig/vina/vina1.pdbqt
 24 28 0 0 0
SMALL
GASTEIGER

@<TRIPOS>ATOM
      1  C1        43.8930   66.1180   16.3620 C.ar  434  INH434      0.0110
      2  C2        42.6430   68.4800   16.4770 C.3   434  INH434      0.0730
      3  C3        43.8810   67.5270   16.5940 C.ar  434  INH434     -0.0460
      4  C4        45.1240   68.1330   16.8660 C.ar  434  INH434     -0.0030
      5  C5        45.3870   69.6080   17.1420 C.3   434  INH434      0.0300
      6  C6        44.4380   70.4400   16.1950 C.3   434  INH434      0.0550
      7  C7        45.1010   69.9510   18.6500 C.3   434  INH434      0.0450
      8  C8        43.6280   69.8580   19.0280 C.3   434  INH434      0.2360
      9  C9        41.3680   70.3610   18.5450 C.3   434  INH434      0.2700
     10  C10       45.1280   65.4060   16.3890 C.ar  434  INH434      0.0400
     11  C11       46.3900   66.0620   16.6410 C.ar  434  INH434      0.0990
     12  C12       46.3250   67.4530   16.8740 C.ar  434  INH434      0.1100
     13  C13       46.9140   69.7050   16.8610 C.3   434  INH434      0.1750
     14  C14       47.2540   70.2440   15.4300 C.3   434  INH434      0.1710
     15  C15       46.1300   70.0440   14.3810 C.2   434  INH434      0.0030
     16  C16       44.8180   70.1230   14.7270 C.2   434  INH434     -0.0200
     17  C17       42.9370   70.0790   16.6350 C.3   434  INH434      0.2000
     18  N1        42.7510   70.5660   18.0690 N.4   434  INH434     -0.0700
     19  O3        47.4130   68.3100   17.1130 O.3   434  INH434     -0.3380
     20  H18       42.9660   71.5500   18.0930 H     434  INH434      0.2790
     21  O1        47.5560   65.3630   16.6420 O.3   434  INH434     -0.3580
     22  H19       48.2840   65.9630   16.7520 H     434  INH434      0.2170
     23  O2        48.4370   69.6480   14.9270 O.3   434  INH434     -0.3890
     24  H20       49.1400   69.7610   15.5550 H     434  INH434      0.2100
@<TRIPOS>BOND
     1    15    16    2
     2    15    14    1
     3    16     6    1
     4    23    14    1
     5    23    24    1
     6    14    13    1
     7     6    17    1
     8     6     5    1
     9     1    10   ar
    10     1     3   ar
    11    10    11   ar
    12     2     3    1
    13     2    17    1
    14     3     4   ar
    15    17    18    1
    16    11    21    1
    17    11    12   ar
    18    21    22    1
    19    13    19    1
    20    13     5    1
    21     4    12   ar
    22     4     5    1
    23    12    19    1
    24     5     7    1
    25    18    20    1
    26    18     9    1
    27    18     8    1
    28     7     8    1
