@<TRIPOS>MOLECULE
/tmp/ewbell/vina_1q0y_1q0y_lig/vina/vina5.pdbqt
 24 28 0 0 0
SMALL
GASTEIGER

@<TRIPOS>ATOM
      1  C1        55.1650   54.8820    4.7790 C.ar  434  INH434      0.0110
      2  C2        56.7830   56.8640    5.5620 C.3   434  INH434      0.0730
      3  C3        55.4550   56.0340    5.5730 C.ar  434  INH434     -0.0460
      4  C4        54.4840   56.4050    6.5250 C.ar  434  INH434     -0.0030
      5  C5        54.5470   57.5800    7.4930 C.3   434  INH434      0.0300
      6  C6        56.0410   57.6990    7.9890 C.3   434  INH434      0.0550
      7  C7        54.0920   58.9080    6.7860 C.3   434  INH434      0.0450
      8  C8        55.0550   59.3870    5.7080 C.3   434  INH434      0.2360
      9  C9        57.2710   59.8480    5.0180 C.3   434  INH434      0.2700
     10  C10       53.9540   54.1620    4.9920 C.ar  434  INH434      0.0400
     11  C11       52.9920   54.5500    5.9970 C.ar  434  INH434      0.0990
     12  C12       53.3180   55.7000    6.7490 C.ar  434  INH434      0.1100
     13  C13       53.4910   57.1590    8.5550 C.3   434  INH434      0.1750
     14  C14       54.1140   56.4910    9.8280 C.3   434  INH434      0.1710
     15  C15       55.5070   55.8510    9.6050 C.2   434  INH434      0.0030
     16  C16       56.4070   56.3970    8.7450 C.2   434  INH434     -0.0200
     17  C17       56.9190   58.0380    6.6880 C.3   434  INH434      0.2000
     18  N1        56.4620   59.3980    6.1690 N.4   434  INH434     -0.0700
     19  O3        52.5610   56.2550    7.7950 O.3   434  INH434     -0.3380
     20  H18       56.5560   60.0640    6.9200 H     434  INH434      0.2790
     21  O1        51.8540   53.8340    6.1930 O.3   434  INH434     -0.3580
     22  H19       52.0250   52.9150    6.0250 H     434  INH434      0.2170
     23  O2        53.2530   55.5000   10.3580 O.3   434  INH434     -0.3890
     24  H20       52.6430   55.2170    9.6870 H     434  INH434      0.2100
@<TRIPOS>BOND
     1     1    10   ar
     2     1     3   ar
     3    10    11   ar
     4     9    18    1
     5     2     3    1
     6     2    17    1
     7     3     4   ar
     8     8    18    1
     9     8     7    1
    10    11    21    1
    11    11    12   ar
    12    22    21    1
    13    18    17    1
    14    18    20    1
    15     4    12   ar
    16     4     5    1
    17    17     6    1
    18    12    19    1
    19     7     5    1
    20     5     6    1
    21     5    13    1
    22    19    13    1
    23     6    16    1
    24    13    14    1
    25    16    15    2
    26    15    14    1
    27    24    23    1
    28    14    23    1
