@<TRIPOS>MOLECULE
/tmp/ewbell/vina_1q0y_1q0y_lig/vina/vina4.pdbqt
 24 28 0 0 0
SMALL
GASTEIGER

@<TRIPOS>ATOM
      1  C1        52.2050   58.2400    7.4000 C.ar  434  INH434      0.0110
      2  C2        53.8960   59.0300    5.4850 C.3   434  INH434      0.0730
      3  C3        53.5200   58.5020    6.9110 C.ar  434  INH434     -0.0460
      4  C4        54.5910   58.1670    7.7650 C.ar  434  INH434     -0.0030
      5  C5        56.0790   58.3390    7.4860 C.3   434  INH434      0.0300
      6  C6        56.3130   57.9950    5.9630 C.3   434  INH434      0.0550
      7  C7        56.5360   59.8110    7.7970 C.3   434  INH434      0.0450
      8  C8        55.9550   60.8460    6.8420 C.3   434  INH434      0.2360
      9  C9        55.4700   61.5250    4.6280 C.3   434  INH434      0.2700
     10  C10       52.0320   57.6440    8.6840 C.ar  434  INH434      0.0400
     11  C11       53.1510   57.2840    9.5230 C.ar  434  INH434      0.0990
     12  C12       54.4310   57.5720    9.0000 C.ar  434  INH434      0.1100
     13  C13       56.7000   57.3640    8.5260 C.3   434  INH434      0.1750
     14  C14       57.0770   55.9660    7.9260 C.3   434  INH434      0.1710
     15  C15       56.2900   55.5780    6.6480 C.2   434  INH434      0.0030
     16  C16       55.9210   56.5140    5.7340 C.2   434  INH434     -0.0200
     17  C17       55.4880   59.0880    5.1250 C.3   434  INH434      0.2000
     18  N1        56.1030   60.4530    5.4220 N.4   434  INH434     -0.0700
     19  O3        55.6640   57.2920    9.6120 O.3   434  INH434     -0.3380
     20  H18       57.0840   60.4070    5.1950 H     434  INH434      0.2790
     21  O1        52.9600   56.6990   10.7350 O.3   434  INH434     -0.3580
     22  H19       52.3760   57.2360   11.2570 H     434  INH434      0.2170
     23  O2        56.9010   54.9350    8.8810 O.3   434  INH434     -0.3890
     24  H20       56.4370   55.2790    9.6360 H     434  INH434      0.2100
@<TRIPOS>BOND
     1     9    18    1
     2    17    18    1
     3    17     2    1
     4    17     6    1
     5    20    18    1
     6    18     8    1
     7     2     3    1
     8    16     6    1
     9    16    15    2
    10     6     5    1
    11    15    14    1
    12     8     7    1
    13     3     1   ar
    14     3     4   ar
    15     1    10   ar
    16     5     4    1
    17     5     7    1
    18     5    13    1
    19     4    12   ar
    20    14    13    1
    21    14    23    1
    22    13    19    1
    23    10    11   ar
    24    23    24    1
    25    12    11   ar
    26    12    19    1
    27    11    21    1
    28    21    22    1
