@<TRIPOS>MOLECULE
/tmp/ewbell/vina_1q0y_1q0y_lig/vina/vina3.pdbqt
 24 28 0 0 0
SMALL
GASTEIGER

@<TRIPOS>ATOM
      1  C1        57.1150   55.7520    7.4400 C.ar  434  INH434      0.0110
      2  C2        56.3440   55.9760    4.8890 C.3   434  INH434      0.0730
      3  C3        56.1100   55.8050    6.4280 C.ar  434  INH434     -0.0460
      4  C4        54.7700   55.7920    6.8670 C.ar  434  INH434     -0.0030
      5  C5        53.5170   55.8440    6.0010 C.3   434  INH434      0.0300
      6  C6        53.8140   56.8320    4.8060 C.3   434  INH434      0.0550
      7  C7        53.1580   54.4120    5.4580 C.3   434  INH434      0.0450
      8  C8        54.1660   53.8690    4.4540 C.3   434  INH434      0.2360
      9  C9        55.5000   54.2000    2.5290 C.3   434  INH434      0.2700
     10  C10       56.7360   55.7160    8.8140 C.ar  434  INH434      0.0400
     11  C11       55.3540   55.7350    9.2330 C.ar  434  INH434      0.0990
     12  C12       54.3970   55.7770    8.1960 C.ar  434  INH434      0.1100
     13  C13       52.4480   56.2990    7.0340 C.3   434  INH434      0.1750
     14  C14       52.1520   57.8370    6.9910 C.3   434  INH434      0.1710
     15  C15       53.2970   58.7000    6.4030 C.2   434  INH434      0.0030
     16  C16       54.0830   58.2390    5.3940 C.2   434  INH434     -0.0200
     17  C17       55.0120   56.1710    3.9650 C.3   434  INH434      0.2000
     18  N1        54.4990   54.8510    3.3970 N.4   434  INH434     -0.0700
     19  O3        53.0020   55.8300    8.3510 O.3   434  INH434     -0.3380
     20  H18       53.6700   55.0460    2.8580 H     434  INH434      0.2790
     21  O1        55.0200   55.7190   10.5500 O.3   434  INH434     -0.3580
     22  H19       54.1110   55.4620   10.6430 H     434  INH434      0.2170
     23  O2        51.8440   58.3350    8.2810 O.3   434  INH434     -0.3890
     24  H20       50.9710   58.7100    8.2760 H     434  INH434      0.2100
@<TRIPOS>BOND
     1     9    18    1
     2    20    18    1
     3    18    17    1
     4    18     8    1
     5    17     6    1
     6    17     2    1
     7     8     7    1
     8     6    16    1
     9     6     5    1
    10     2     3    1
    11    16    15    2
    12     7     5    1
    13     5     4    1
    14     5    13    1
    15    15    14    1
    16     3     4   ar
    17     3     1   ar
    18     4    12   ar
    19    14    13    1
    20    14    23    1
    21    13    19    1
    22     1    10   ar
    23    12    19    1
    24    12    11   ar
    25    24    23    1
    26    10    11   ar
    27    11    21    1
    28    21    22    1
