@<TRIPOS>MOLECULE
./ligand/1lrh_lig.pdb
 23 24 0 0 0
SMALL
GASTEIGER

@<TRIPOS>ATOM
      1  C1        67.0620   41.4120   23.3770 C.ar  327  INH327     -0.0142
      2  C2        67.3560   41.0350   24.7090 C.ar  327  INH327     -0.0289
      3  C3        68.6830   41.0750   25.1790 C.ar  327  INH327     -0.0575
      4  C4        69.7240   41.4490   24.2940 C.ar  327  INH327     -0.0609
      5  C5        69.4720   41.8320   23.0220 C.ar  327  INH327     -0.0540
      6  C6        68.1620   41.8330   22.5090 C.ar  327  INH327     -0.0176
      7  C7        67.8870   42.1940   21.1380 C.ar  327  INH327     -0.0540
      8  C8        66.5860   42.1760   20.6710 C.ar  327  INH327     -0.0612
      9  C9        65.5030   41.7940   21.5090 C.ar  327  INH327     -0.0612
     10  C10       65.7230   41.4250   22.8310 C.ar  327  INH327     -0.0538
     11  C11       66.2660   40.6060   25.7450 C.3   327  INH327      0.0749
     12  C12       66.7580   39.6240   26.7270 C.2   327  INH327      0.3603
     13  O1        66.8010   38.3250   26.4730 O.co2 327  INH327     -0.2460
     14  O2        67.2210   40.1640   27.8410 O.co2 327  INH327     -0.2460
     15  H1        68.9060   40.8220   26.2090 H     327  INH327      0.0621
     16  H2        70.7490   41.4280   24.6460 H     327  INH327      0.0618
     17  H3        70.2930   42.1440   22.3870 H     327  INH327      0.0624
     18  H4        68.6980   42.4780   20.4770 H     327  INH327      0.0624
     19  H5        66.3870   42.4590   19.6440 H     327  INH327      0.0618
     20  H6        64.4940   41.7900   21.1120 H     327  INH327      0.0618
     21  H7        64.8840   41.1450   23.4580 H     327  INH327      0.0624
     22  H8        65.4200   40.1620   25.2000 H     327  INH327      0.0428
     23  H9        65.9250   41.5010   26.2860 H     327  INH327      0.0428
@<TRIPOS>BOND
     1     1    10   ar
     2     1     6   ar
     3     1     2   ar
     4     2    11    1
     5     2     3   ar
     6     3    15    1
     7     3     4   ar
     8     4    16    1
     9     4     5   ar
    10     5    17    1
    11     5     6   ar
    12     6     7   ar
    13     7    18    1
    14     7     8   ar
    15     8    19    1
    16     8     9   ar
    17     9    20    1
    18     9    10   ar
    19    10    21    1
    20    11    23    1
    21    11    22    1
    22    11    12    1
    23    12    14   ar
    24    12    13   ar
