@<TRIPOS>MOLECULE
/tmp/ewbell/vina_1lrh_1lrh_lig/vina/vina4.pdbqt
 15 16 0 0 0
SMALL
GASTEIGER

@<TRIPOS>ATOM
      1  C1        64.7840   39.9520   23.3890 C.ar  327  INH327     -0.0190
      2  C2        66.0200   40.1920   24.0360 C.ar  327  INH327     -0.0370
      3  C3        66.8020   41.3070   23.6760 C.ar  327  INH327      0.0080
      4  C4        66.3640   42.1560   22.6310 C.ar  327  INH327      0.0010
      5  C5        65.1790   41.9630   22.0070 C.ar  327  INH327      0.0120
      6  C6        64.3490   40.8790   22.3440 C.ar  327  INH327     -0.0250
      7  C7        63.1050   40.6350   21.6520 C.ar  327  INH327      0.0120
      8  C8        62.3210   39.5540   22.0090 C.ar  327  INH327      0.0010
      9  C9        62.7170   38.6590   23.0400 C.ar  327  INH327      0.0010
     10  C10       63.9130   38.8470   23.7230 C.ar  327  INH327      0.0130
     11  C11       66.5750   39.3000   25.1940 C.3   327  INH327      0.1490
     12  C12       66.4210   39.9180   26.5230 C.2   327  INH327      0.1430
     13  O2        65.2040   40.3750   26.7640 O.2   327  INH327     -0.6500
     14  O1        67.4360   40.0690   27.3590 O.3   327  INH327     -0.7760
     15  H         67.2870   40.0500   28.2840 H     327  INH327      0.1670
@<TRIPOS>BOND
     1     7     8   ar
     2     7     6   ar
     3     5     6   ar
     4     5     4   ar
     5     8     9   ar
     6     6     1   ar
     7     4     3   ar
     8     9    10   ar
     9     1    10   ar
    10     1     2   ar
    11     3     2   ar
    12     2    11    1
    13    11    12    1
    14    12    13    2
    15    12    14    1
    16    14    15    1
