@<TRIPOS>MOLECULE
/tmp/ewbell/vina_1lrh_1lrh_lig/vina/vina3.pdbqt
 15 16 0 0 0
SMALL
GASTEIGER

@<TRIPOS>ATOM
      1  C1        67.1090   41.0380   24.2410 C.ar  327  INH327     -0.0190
      2  C2        67.6930   41.5680   23.0650 C.ar  327  INH327     -0.0370
      3  C3        69.0230   42.0300   23.0830 C.ar  327  INH327      0.0080
      4  C4        69.7540   42.0030   24.2960 C.ar  327  INH327      0.0010
      5  C5        69.2290   41.4860   25.4300 C.ar  327  INH327      0.0120
      6  C6        67.9130   40.9900   25.4620 C.ar  327  INH327     -0.0250
      7  C7        67.3270   40.4800   26.6790 C.ar  327  INH327      0.0120
      8  C8        66.0280   40.0070   26.6700 C.ar  327  INH327      0.0010
      9  C9        65.2420   40.0240   25.4850 C.ar  327  INH327      0.0010
     10  C10       65.7610   40.5190   24.2950 C.ar  327  INH327      0.0130
     11  C11       66.9530   41.6370   21.6900 C.3   327  INH327      0.1490
     12  C12       65.6740   42.3650   21.7580 C.2   327  INH327      0.1430
     13  O2        65.7820   43.5960   22.2280 O.2   327  INH327     -0.6500
     14  O1        64.5170   41.8010   21.4510 O.3   327  INH327     -0.7760
     15  H         64.2940   40.9630   21.8100 H     327  INH327      0.1670
@<TRIPOS>BOND
     1    14    12    1
     2    14    15    1
     3    11    12    1
     4    11     2    1
     5    12    13    2
     6     2     3   ar
     7     2     1   ar
     8     3     4   ar
     9     1    10   ar
    10     1     6   ar
    11    10     9   ar
    12     4     5   ar
    13     5     6   ar
    14     6     7   ar
    15     9     8   ar
    16     8     7   ar
