@<TRIPOS>MOLECULE
/tmp/ewbell/vina_1lrh_1lrh_lig/vina/vina2.pdbqt
 15 16 0 0 0
SMALL
GASTEIGER

@<TRIPOS>ATOM
      1  C1        65.8990   41.0630   23.7300 C.ar  327  INH327     -0.0190
      2  C2        65.4180   41.5310   22.4850 C.ar  327  INH327     -0.0370
      3  C3        64.2860   40.9360   21.8940 C.ar  327  INH327      0.0080
      4  C4        63.6650   39.8350   22.5340 C.ar  327  INH327      0.0010
      5  C5        64.0900   39.3770   23.7330 C.ar  327  INH327      0.0120
      6  C6        65.2010   39.9510   24.3780 C.ar  327  INH327     -0.0250
      7  C7        65.6940   39.4390   25.6350 C.ar  327  INH327      0.0120
      8  C8        66.7930   40.0280   26.2330 C.ar  327  INH327      0.0010
      9  C9        67.4660   41.1250   25.6300 C.ar  327  INH327      0.0010
     10  C10       67.0350   41.6410   24.4130 C.ar  327  INH327      0.0130
     11  C11       66.0490   42.7360   21.7140 C.3   327  INH327      0.1490
     12  C12       66.8790   42.3180   20.5690 C.2   327  INH327      0.1430
     13  O2        68.0130   41.7320   20.9150 O.2   327  INH327     -0.6500
     14  O1        66.5460   42.5820   19.3160 O.3   327  INH327     -0.7760
     15  H         66.0940   43.3770   19.1090 H     327  INH327      0.1670
@<TRIPOS>BOND
     1    15    14    1
     2    14    12    1
     3    12    13    2
     4    12    11    1
     5    11     2    1
     6     3     2   ar
     7     3     4   ar
     8     2     1   ar
     9     4     5   ar
    10     1     6   ar
    11     1    10   ar
    12     5     6   ar
    13     6     7   ar
    14    10     9   ar
    15     9     8   ar
    16     7     8   ar
