@<TRIPOS>MOLECULE
/tmp/ewbell/vina_1lrh_1lrh_lig/vina/vina1.pdbqt
 15 16 0 0 0
SMALL
GASTEIGER

@<TRIPOS>ATOM
      1  C1        66.9100   41.6850   23.0140 C.ar  327  INH327     -0.0190
      2  C2        67.2220   41.3030   24.3410 C.ar  327  INH327     -0.0370
      3  C3        68.5440   41.4130   24.8160 C.ar  327  INH327      0.0080
      4  C4        69.5630   41.8640   23.9420 C.ar  327  INH327      0.0010
      5  C5        69.2920   42.2530   22.6750 C.ar  327  INH327      0.0120
      6  C6        67.9850   42.1850   22.1580 C.ar  327  INH327     -0.0250
      7  C7        67.6930   42.5530   20.7920 C.ar  327  INH327      0.0120
      8  C8        66.3960   42.4660   20.3200 C.ar  327  INH327      0.0010
      9  C9        65.3360   42.0060   21.1480 C.ar  327  INH327      0.0010
     10  C10       65.5740   41.6280   22.4640 C.ar  327  INH327      0.0130
     11  C11       66.1570   40.7920   25.3650 C.3   327  INH327      0.1490
     12  C12       66.4730   39.4590   25.9100 C.2   327  INH327      0.1430
     13  O2        66.1710   38.4620   25.0960 O.2   327  INH327     -0.6500
     14  O1        66.9410   39.2850   27.1360 O.3   327  INH327     -0.7760
     15  H         67.3890   39.9850   27.5700 H     327  INH327      0.1670
@<TRIPOS>BOND
     1     8     7   ar
     2     8     9   ar
     3     7     6   ar
     4     9    10   ar
     5     6     5   ar
     6     6     1   ar
     7    10     1   ar
     8     5     4   ar
     9     1     2   ar
    10     4     3   ar
    11     2     3   ar
    12     2    11    1
    13    13    12    2
    14    11    12    1
    15    12    14    1
    16    14    15    1
