@<TRIPOS>MOLECULE
/tmp/ewbell/vina_1lrh_1lrh_lig/vina/vina5.pdbqt
 15 16 0 0 0
SMALL
GASTEIGER

@<TRIPOS>ATOM
      1  C1        65.8020   40.7020   23.3200 C.ar  327  INH327     -0.0190
      2  C2        65.4110   39.6210   24.1470 C.ar  327  INH327     -0.0370
      3  C3        64.1670   38.9920   23.9470 C.ar  327  INH327      0.0080
      4  C4        63.2920   39.4810   22.9460 C.ar  327  INH327      0.0010
      5  C5        63.6460   40.4990   22.1290 C.ar  327  INH327      0.0120
      6  C6        64.8870   41.1470   22.2700 C.ar  327  INH327     -0.0250
      7  C7        65.2540   42.2660   21.4350 C.ar  327  INH327      0.0120
      8  C8        66.4810   42.8800   21.6090 C.ar  327  INH327      0.0010
      9  C9        67.3920   42.4420   22.6090 C.ar  327  INH327      0.0010
     10  C10       67.0740   41.3780   23.4450 C.ar  327  INH327      0.0130
     11  C11       66.3160   39.0270   25.2750 C.3   327  INH327      0.1490
     12  C12       66.2770   39.8140   26.5200 C.2   327  INH327      0.1430
     13  O2        65.1110   40.3920   26.7540 O.2   327  INH327     -0.6500
     14  O1        67.3430   39.9870   27.2860 O.3   327  INH327     -0.7760
     15  H         67.4680   40.7990   27.7380 H     327  INH327      0.1670
@<TRIPOS>BOND
     1     7     8   ar
     2     7     6   ar
     3     8     9   ar
     4     5     6   ar
     5     5     4   ar
     6     6     1   ar
     7     9    10   ar
     8     4     3   ar
     9     1    10   ar
    10     1     2   ar
    11     3     2   ar
    12     2    11    1
    13    11    12    1
    14    12    13    2
    15    12    14    1
    16    14    15    1
