@<TRIPOS>MOLECULE
/tmp/ewbell/vina_2h6t_2h6t_lig/vina/vina4.pdbqt
 56 55 0 0 0
SMALL
GASTEIGER

@<TRIPOS>ATOM
      1  C10        1.2090   19.6610    6.9190 C.3   344  INH344      0.1140
      2  C9         2.5740   19.5940    7.6100 C.3   344  INH344      0.1490
      3  C8         2.4230   19.6640    9.1290 C.3   344  INH344      0.1360
      4  C7         1.6850   20.9720    9.4080 C.2   344  INH344      0.2200
      5  N2         0.3720   20.8090    9.5460 N.am  344  INH344     -0.3480
      6  H8        -0.0160   19.8870    9.5340 H     344  INH344      0.1630
      7  O5         2.2460   22.0630    9.4110 O.2   344  INH344     -0.2740
      8  C6        -0.5130   21.9640    9.7180 C.3   344  INH344      0.1720
      9  C24       -1.8200   21.7320    8.9640 C.3   344  INH344      0.0420
     10  C5        -0.8680   22.0750   11.2110 C.2   344  INH344      0.2400
     11  N1        -1.8060   21.2710   11.7010 N.am  344  INH344     -0.3520
     12  H6        -2.2490   20.5560   11.1590 H     344  INH344      0.1630
     13  O4        -0.3430   22.9400   11.8930 O.2   344  INH344     -0.2710
     14  C4        -2.1330   21.5220   13.0940 C.2   344  INH344      0.1140
     15  C3        -1.3440   20.7630   14.1610 C.3   344  INH344      0.1500
     16  C2        -1.1870   19.3050   13.7230 C.3   344  INH344      0.1430
     17  C1         0.2470   18.9620   13.3190 C.2   344  INH344      0.1410
     18  O2         0.5180   19.0530   12.0990 O.2   344  INH344     -0.6500
     19  O1         1.0590   18.6650   14.2260 O.3   344  INH344     -0.7760
     20  H          0.9320   18.9900   15.0950 H     344  INH344      0.1670
     21  O3        -2.0560   20.7930   15.3960 O.3   344  INH344     -0.3930
     22  H4        -2.8000   20.2040   15.3460 H     344  INH344      0.2100
     23  C20       -3.6360   21.7230   13.4170 C.3   344  INH344      0.0310
     24  C21       -4.1050   23.1400   13.7100 C.3   344  INH344     -0.0210
     25  C23       -5.6150   23.3690   13.5000 C.3   344  INH344      0.0090
     26  C22       -3.2830   24.2260   12.9930 C.3   344  INH344      0.0090
     27  O6         3.4280   20.6430    7.1440 O.3   344  INH344     -0.3930
     28  H12        3.2980   21.4170    7.6800 H     344  INH344      0.2100
     29  N3         1.3540   20.4550    5.6930 N.am  344  INH344     -0.3520
     30  H16        2.0770   20.2120    5.0480 H     344  INH344      0.1630
     31  C12        0.5610   21.4850    5.4050 C.2   344  INH344      0.2410
     32  O7        -0.3620   21.8830    6.1120 O.2   344  INH344     -0.2710
     33  C13        0.8330   22.1060    4.0350 C.3   344  INH344      0.1800
     34  C28        1.6710   21.1550    3.1770 C.3   344  INH344      0.0090
     35  C30        2.7800   21.9150    2.4460 C.3   344  INH344      0.0120
     36  C29        0.7790   20.4280    2.1670 C.3   344  INH344      0.0120
     37  N4         1.5430   23.3510    4.3490 N.am  344  INH344     -0.3460
     38  H18        2.3370   23.2990    4.9520 H     344  INH344      0.1630
     39  C14        1.1900   24.5490    3.8760 C.2   344  INH344      0.2410
     40  O8         1.7760   25.5960    4.1150 O.2   344  INH344     -0.2710
     41  C15       -0.0750   24.5160    3.0150 C.3   344  INH344      0.1800
     42  C31        0.2960   24.8020    1.5570 C.3   344  INH344      0.0090
     43  C33       -0.4520   26.0130    0.9970 C.3   344  INH344      0.0120
     44  C32        0.0400   23.5750    0.6800 C.3   344  INH344      0.0120
     45  N5        -1.0300   25.5200    3.5030 N.am  344  INH344     -0.3470
     46  H20       -0.7780   26.4880    3.4700 H     344  INH344      0.1630
     47  C16       -2.2190   25.1750    3.9870 C.2   344  INH344      0.2180
     48  O9        -3.0580   25.9760    4.3970 O.2   344  INH344     -0.2740
     49  C17       -2.4830   23.6680    3.9880 C.3   344  INH344      0.1060
     50  C18       -3.5280   23.2690    2.9440 C.3   344  INH344     -0.0140
     51  C34       -3.1520   21.9230    2.3210 C.3   344  INH344      0.0100
     52  C19       -3.6790   24.3250    1.8480 C.3   344  INH344      0.0100
     53  C11        0.7160   18.2620    6.5380 C.3   344  INH344      0.0310
     54  C25       -0.1810   17.6900    7.6390 C.3   344  INH344     -0.0210
     55  C27       -1.5380   17.2820    7.0640 C.3   344  INH344      0.0090
     56  C26        0.4730   16.5230    8.3830 C.3   344  INH344      0.0090
@<TRIPOS>BOND
     1    44    42    1
     2    43    42    1
     3    42    41    1
     4    52    50    1
     5    36    34    1
     6    51    50    1
     7    35    34    1
     8    50    49    1
     9    41    45    1
    10    41    39    1
    11    34    33    1
    12    46    45    1
    13    45    47   am
    14    39    40    2
    15    39    37   am
    16    47    49    1
    17    47    48    2
    18    33    37    1
    19    33    31    1
    20    37    38    1
    21    30    29    1
    22    31    29   am
    23    31    32    2
    24    29     1    1
    25    53     1    1
    26    53    54    1
    27     1     2    1
    28    55    54    1
    29    27     2    1
    30    27    28    1
    31     2     3    1
    32    54    56    1
    33     9     8    1
    34     3     4    1
    35     4     7    2
    36     4     5   am
    37     6     5    1
    38     5     8    1
    39     8    10    1
    40    12    11    1
    41    10    11   am
    42    10    13    2
    43    11    14    2
    44    18    17    2
    45    26    24    1
    46    14    23    1
    47    14    15    1
    48    17    16    1
    49    17    19    1
    50    23    24    1
    51    25    24    1
    52    16    15    1
    53    15    21    1
    54    19    20    1
    55    22    21    1
