@<TRIPOS>MOLECULE
/tmp/ewbell/vina_2h6t_2h6t_lig/vina/vina1.pdbqt
 56 55 0 0 0
SMALL
GASTEIGER

@<TRIPOS>ATOM
      1  C10        0.4920   19.7410    7.3470 C.3   344  INH344      0.1140
      2  C9         1.2110   20.4220    8.5160 C.3   344  INH344      0.1490
      3  C8         1.3680   19.4630    9.6960 C.3   344  INH344      0.1360
      4  C7         1.1470   20.3120   10.9470 C.2   344  INH344      0.2200
      5  N2        -0.1180   20.3100   11.3600 N.am  344  INH344     -0.3480
      6  H8        -0.7880   19.7290   10.8980 H     344  INH344      0.1630
      7  O5         2.0350   20.9900   11.4520 O.2   344  INH344     -0.2740
      8  C6        -0.5390   21.1480   12.4850 C.3   344  INH344      0.1720
      9  C24       -1.7230   22.0170   12.0680 C.3   344  INH344      0.0420
     10  C5        -1.0340   20.2220   13.6100 C.2   344  INH344      0.2400
     11  N1        -0.4250   20.2750   14.7900 N.am  344  INH344     -0.3520
     12  H6         0.3010   20.9320   14.9990 H     344  INH344      0.1630
     13  O4        -1.9170   19.4110   13.3790 O.2   344  INH344     -0.2710
     14  C4        -0.9040   19.2960   15.7490 C.2   344  INH344      0.1140
     15  C3        -1.6170   19.8110   17.0000 C.3   344  INH344      0.1500
     16  C2        -2.2270   21.1810   16.6980 C.3   344  INH344      0.1430
     17  C1        -2.2510   22.0990   17.9210 C.2   344  INH344      0.1410
     18  O2        -3.1520   21.8790   18.7630 O.2   344  INH344     -0.6500
     19  O1        -1.3510   22.9650   18.0250 O.3   344  INH344     -0.7760
     20  H         -0.4740   22.7080   18.2310 H     344  INH344      0.1670
     21  O3        -0.6770   19.9540   18.0630 O.3   344  INH344     -0.3930
     22  H4        -0.1220   20.7060   17.8930 H     344  INH344      0.2100
     23  C20        0.0090   18.0640   15.9820 C.3   344  INH344      0.0310
     24  C21        0.0570   17.0130   14.8850 C.3   344  INH344     -0.0210
     25  C23       -0.1200   15.5630   15.3810 C.3   344  INH344      0.0090
     26  C22        1.2880   17.1280   13.9690 C.3   344  INH344      0.0090
     27  O6         0.5110   21.6020    8.9210 O.3   344  INH344     -0.3930
     28  H12        0.2370   21.5110    9.8260 H     344  INH344      0.2100
     29  N3         0.8260   20.4690    6.1170 N.am  344  INH344     -0.3520
     30  H16        1.6200   20.1750    5.5870 H     344  INH344      0.1630
     31  C12        0.1140   21.5050    5.6780 C.2   344  INH344      0.2410
     32  O7        -0.8800   21.9630    6.2360 O.2   344  INH344     -0.2710
     33  C13        0.5870   22.0500    4.3310 C.3   344  INH344      0.1800
     34  C28        1.4700   21.0200    3.6210 C.3   344  INH344      0.0090
     35  C30        2.6480   21.7010    2.9230 C.3   344  INH344      0.0120
     36  C29        0.6440   20.2270    2.6050 C.3   344  INH344      0.0120
     37  N4         1.3220   23.2700    4.6830 N.am  344  INH344     -0.3460
     38  H18        2.0640   23.1940    5.3470 H     344  INH344      0.1630
     39  C14        1.0570   24.4740    4.1690 C.2   344  INH344      0.2410
     40  O8         1.6660   25.4990    4.4400 O.2   344  INH344     -0.2710
     41  C15       -0.1380   24.4780    3.2130 C.3   344  INH344      0.1800
     42  C31        0.3630   24.6540    1.7760 C.3   344  INH344      0.0090
     43  C33       -0.1760   25.9310    1.1290 C.3   344  INH344      0.0120
     44  C32       -0.0000   23.4390    0.9210 C.3   344  INH344      0.0120
     45  N5        -1.0520   25.5720    3.5710 N.am  344  INH344     -0.3470
     46  H20       -0.7390   26.5180    3.4770 H     344  INH344      0.1630
     47  C16       -2.2810   25.3360    4.0170 C.2   344  INH344      0.2180
     48  O9        -3.0880   26.2150    4.3190 O.2   344  INH344     -0.2740
     49  C17       -2.6380   23.8520    4.1200 C.3   344  INH344      0.1060
     50  C18       -3.5870   23.4110    3.0030 C.3   344  INH344     -0.0140
     51  C34       -3.2050   22.0100    2.5210 C.3   344  INH344      0.0100
     52  C19       -3.5800   24.3860    1.8250 C.3   344  INH344      0.0100
     53  C11        0.9490   18.2880    7.1920 C.3   344  INH344      0.0310
     54  C25       -0.2360   17.3880    6.8300 C.3   344  INH344     -0.0210
     55  C27       -0.2120   16.1100    7.6700 C.3   344  INH344      0.0090
     56  C26       -1.5810   18.1060    6.9600 C.3   344  INH344      0.0090
@<TRIPOS>BOND
     1    44    42    1
     2    43    42    1
     3    42    41    1
     4    52    50    1
     5    51    50    1
     6    36    34    1
     7    35    34    1
     8    50    49    1
     9    41    45    1
    10    41    39    1
    11    46    45    1
    12    45    47   am
    13    34    33    1
    14    47    49    1
    15    47    48    2
    16    39    40    2
    17    39    37   am
    18    33    37    1
    19    33    31    1
    20    37    38    1
    21    30    29    1
    22    31    29   am
    23    31    32    2
    24    29     1    1
    25    54    56    1
    26    54    53    1
    27    54    55    1
    28    53     1    1
    29     1     2    1
    30     2    27    1
    31     2     3    1
    32    27    28    1
    33     3     4    1
    34     6     5    1
    35     4     5   am
    36     4     7    2
    37     5     8    1
    38     9     8    1
    39     8    10    1
    40    13    10    2
    41    10    11   am
    42    26    24    1
    43    11    12    1
    44    11    14    2
    45    24    25    1
    46    24    23    1
    47    14    23    1
    48    14    15    1
    49    16    15    1
    50    16    17    1
    51    15    21    1
    52    22    21    1
    53    17    19    1
    54    17    18    2
    55    19    20    1
