@<TRIPOS>MOLECULE
/tmp/ewbell/vina_2h6t_2h6t_lig/vina/vina3.pdbqt
 56 55 0 0 0
SMALL
GASTEIGER

@<TRIPOS>ATOM
      1  C10       -1.0460   21.3010    8.4320 C.3   344  INH344      0.1140
      2  C9        -0.7020   22.2240    9.6050 C.3   344  INH344      0.1490
      3  C8        -1.0510   21.5650   10.9400 C.3   344  INH344      0.1360
      4  C7        -1.2640   22.7150   11.9220 C.2   344  INH344      0.2200
      5  N2        -2.5110   22.7820   12.3820 N.am  344  INH344     -0.3480
      6  H8        -3.1700   22.0740   12.1290 H     344  INH344      0.1630
      7  O5        -0.3910   23.5370   12.1790 O.2   344  INH344     -0.2740
      8  C6        -2.9290   23.8810   13.2550 C.3   344  INH344      0.1720
      9  C24       -4.1430   24.5860   12.6570 C.3   344  INH344      0.0420
     10  C5        -3.3760   23.2780   14.5990 C.2   344  INH344      0.2400
     11  N1        -3.3050   24.0350   15.6890 N.am  344  INH344     -0.3520
     12  H6        -3.0330   24.9980   15.6670 H     344  INH344      0.1630
     13  O4        -3.7110   22.1050   14.6520 O.2   344  INH344     -0.2710
     14  C4        -3.6580   23.3420   16.9160 C.2   344  INH344      0.1140
     15  C3        -2.7490   22.2040   17.3800 C.3   344  INH344      0.1500
     16  C2        -3.5220   21.3150   18.3570 C.3   344  INH344      0.1430
     17  C1        -2.9660   19.8930   18.4290 C.2   344  INH344      0.1410
     18  O2        -3.7830   18.9650   18.2250 O.2   344  INH344     -0.6500
     19  O1        -1.7370   19.7510   18.6340 O.3   344  INH344     -0.7760
     20  H         -1.2190   19.2420   18.0430 H     344  INH344      0.1670
     21  O3        -1.6130   22.7410   18.0540 O.3   344  INH344     -0.3930
     22  H4        -1.7750   23.6520   18.2690 H     344  INH344      0.2100
     23  C20       -5.1710   23.1040   17.1560 C.3   344  INH344      0.0310
     24  C21       -5.9160   24.1330   17.9910 C.3   344  INH344     -0.0210
     25  C23       -6.5990   23.5590   19.2500 C.3   344  INH344      0.0090
     26  C22       -6.9010   24.9940   17.1820 C.3   344  INH344      0.0090
     27  O6        -1.3770   23.4780    9.4770 O.3   344  INH344     -0.3930
     28  H12       -0.7760   24.1830    9.6870 H     344  INH344      0.2100
     29  N3        -0.3810   21.8200    7.2310 N.am  344  INH344     -0.3520
     30  H16        0.5690   22.1230    7.3020 H     344  INH344      0.1630
     31  C12       -0.9890   21.9030    6.0490 C.2   344  INH344      0.2410
     32  O7        -2.1500   21.5640    5.8300 O.2   344  INH344     -0.2710
     33  C13       -0.0790   22.3840    4.9200 C.3   344  INH344      0.1800
     34  C28        1.3600   21.9220    5.1640 C.3   344  INH344      0.0090
     35  C30        2.3420   23.0820    4.9910 C.3   344  INH344      0.0120
     36  C29        1.7190   20.7820    4.2070 C.3   344  INH344      0.0120
     37  N4        -0.2120   23.8440    4.9600 N.am  344  INH344     -0.3460
     38  H18        0.0490   24.3160    5.8000 H     344  INH344      0.1630
     39  C14       -0.6620   24.5790    3.9390 C.2   344  INH344      0.2410
     40  O8        -0.7690   25.7980    3.9480 O.2   344  INH344     -0.2710
     41  C15       -1.0910   23.7440    2.7300 C.3   344  INH344      0.1800
     42  C31        0.1440   23.3920    1.8940 C.3   344  INH344      0.0090
     43  C33        0.5230   24.5140    0.9250 C.3   344  INH344      0.0120
     44  C32       -0.0740   22.0870    1.1260 C.3   344  INH344      0.0120
     45  N5        -2.0530   24.5050    1.9210 N.am  344  INH344     -0.3470
     46  H20       -1.7190   25.2370    1.3270 H     344  INH344      0.1630
     47  C16       -3.3560   24.2450    1.9600 C.2   344  INH344      0.2180
     48  O9        -4.2010   24.8440    1.2960 O.2   344  INH344     -0.2740
     49  C17       -3.7420   23.1080    2.9080 C.3   344  INH344      0.1060
     50  C18       -4.1580   21.8450    2.1490 C.3   344  INH344     -0.0140
     51  C34       -5.6830   21.7260    2.1380 C.3   344  INH344      0.0100
     52  C19       -3.5420   20.5820    2.7520 C.3   344  INH344      0.0100
     53  C11       -0.5480   19.8760    8.6880 C.3   344  INH344      0.0310
     54  C25        0.9250   19.7420    8.2880 C.3   344  INH344     -0.0210
     55  C27        1.7950   19.5160    9.5250 C.3   344  INH344      0.0090
     56  C26        1.1530   18.6440    7.2460 C.3   344  INH344      0.0090
@<TRIPOS>BOND
     1    43    42    1
     2    44    42    1
     3    48    47    2
     4    46    45    1
     5    42    41    1
     6    45    47   am
     7    45    41    1
     8    47    49    1
     9    51    50    1
    10    50    52    1
    11    50    49    1
    12    41    39    1
    13    39    40    2
    14    39    37   am
    15    36    34    1
    16    33    37    1
    17    33    34    1
    18    33    31    1
    19    37    38    1
    20    35    34    1
    21    32    31    2
    22    31    29   am
    23    29    30    1
    24    29     1    1
    25    56    54    1
    26    54    53    1
    27    54    55    1
    28     1    53    1
    29     1     2    1
    30    27     2    1
    31    27    28    1
    32     2     3    1
    33     3     4    1
    34     4     7    2
    35     4     5   am
    36     6     5    1
    37     5     8    1
    38     9     8    1
    39     8    10    1
    40    10    13    2
    41    10    11   am
    42    12    11    1
    43    11    14    2
    44    14    23    1
    45    14    15    1
    46    23    24    1
    47    26    24    1
    48    15    21    1
    49    15    16    1
    50    24    25    1
    51    20    19    1
    52    21    22    1
    53    18    17    2
    54    16    17    1
    55    17    19    1
