@<TRIPOS>MOLECULE
/tmp/ewbell/vina_2h6t_2h6t_lig/vina/vina2.pdbqt
 56 55 0 0 0
SMALL
GASTEIGER

@<TRIPOS>ATOM
      1  C10       -1.1330   21.2500    8.5360 C.3   344  INH344      0.1140
      2  C9        -0.6710   22.1890    9.6550 C.3   344  INH344      0.1490
      3  C8        -0.9400   21.5780   11.0290 C.3   344  INH344      0.1360
      4  C7        -1.1920   22.7600   11.9630 C.2   344  INH344      0.2200
      5  N2        -2.4390   22.8030   12.4240 N.am  344  INH344     -0.3480
      6  H8        -3.0740   22.0620   12.2030 H     344  INH344      0.1630
      7  O5        -0.3480   23.6230   12.1820 O.2   344  INH344     -0.2740
      8  C6        -2.8940   23.9230   13.2510 C.3   344  INH344      0.1720
      9  C24       -3.9740   24.7090   12.5120 C.3   344  INH344      0.0420
     10  C5        -3.5470   23.3430   14.5190 C.2   344  INH344      0.2400
     11  N1        -3.3830   23.9900   15.6690 N.am  344  INH344     -0.3520
     12  H6        -2.9070   24.8670   15.7380 H     344  INH344      0.1630
     13  O4        -4.1320   22.2740   14.4610 O.2   344  INH344     -0.2710
     14  C4        -3.9560   23.3100   16.8170 C.2   344  INH344      0.1140
     15  C3        -5.0880   24.0100   17.5700 C.3   344  INH344      0.1500
     16  C2        -5.8660   22.9710   18.3810 C.3   344  INH344      0.1430
     17  C1        -6.8910   22.2120   17.5390 C.2   344  INH344      0.1410
     18  O2        -6.5240   21.1060   17.0780 O.2   344  INH344     -0.6500
     19  O1        -8.0330   22.7120   17.4090 O.3   344  INH344     -0.7760
     20  H         -8.2600   23.1670   16.6220 H     344  INH344      0.1670
     21  O3        -5.9790   24.6200   16.6380 O.3   344  INH344     -0.3930
     22  H4        -6.2190   23.9880   15.9710 H     344  INH344      0.2100
     23  C20       -2.9620   22.5320   17.7180 C.3   344  INH344      0.0310
     24  C21       -2.8350   21.0350   17.4870 C.3   344  INH344     -0.0210
     25  C23       -3.2930   20.1650   18.6740 C.3   344  INH344      0.0090
     26  C22       -1.4430   20.5990   16.9970 C.3   344  INH344      0.0090
     27  O6        -1.3110   23.4640    9.5420 O.3   344  INH344     -0.3930
     28  H12       -1.1370   23.9750   10.3230 H     344  INH344      0.2100
     29  N3        -0.4030   21.6010    7.3120 N.am  344  INH344     -0.3520
     30  H16        0.5790   21.4200    7.2720 H     344  INH344      0.1630
     31  C12       -0.9950   22.1500    6.2530 C.2   344  INH344      0.2410
     32  O7        -2.1910   22.4220    6.1770 O.2   344  INH344     -0.2710
     33  C13       -0.0620   22.3440    5.0590 C.3   344  INH344      0.1800
     34  C28        0.8720   21.1390    4.9120 C.3   344  INH344      0.0090
     35  C30        2.2960   21.5900    4.5840 C.3   344  INH344      0.0120
     36  C29        0.3540   20.1990    3.8210 C.3   344  INH344      0.0120
     37  N4         0.6640   23.5790    5.3760 N.am  344  INH344     -0.3460
     38  H18        1.0580   23.6700    6.2890 H     344  INH344      0.1630
     39  C14        0.8280   24.5880    4.5170 C.2   344  INH344      0.2410
     40  O8         1.4390   25.6200    4.7580 O.2   344  INH344     -0.2710
     41  C15        0.1290   24.3640    3.1730 C.3   344  INH344      0.1800
     42  C31        1.1720   23.9940    2.1150 C.3   344  INH344      0.0090
     43  C33        1.5590   25.1900    1.2430 C.3   344  INH344      0.0120
     44  C32        0.6730   22.8440    1.2380 C.3   344  INH344      0.0120
     45  N5        -0.5850   25.5860    2.7790 N.am  344  INH344     -0.3470
     46  H20       -0.0600   26.3730    2.4520 H     344  INH344      0.1630
     47  C16       -1.9100   25.6730    2.8460 C.2   344  INH344      0.2180
     48  O9        -2.5560   26.6670    2.5180 O.2   344  INH344     -0.2740
     49  C17       -2.5960   24.4070    3.3640 C.3   344  INH344      0.1060
     50  C18       -3.1600   23.5540    2.2260 C.3   344  INH344     -0.0140
     51  C34       -4.6700   23.7720    2.1140 C.3   344  INH344      0.0100
     52  C19       -2.8620   22.0670    2.4210 C.3   344  INH344      0.0100
     53  C11       -0.8300   19.7900    8.8830 C.3   344  INH344      0.0310
     54  C25        0.5270   19.3730    8.3100 C.3   344  INH344     -0.0210
     55  C27        1.5340   19.1410    9.4370 C.3   344  INH344      0.0090
     56  C26        0.4290   18.1460    7.4000 C.3   344  INH344      0.0090
@<TRIPOS>BOND
     1    44    42    1
     2    43    42    1
     3    51    50    1
     4    42    41    1
     5    50    52    1
     6    50    49    1
     7    46    45    1
     8    48    47    2
     9    45    47   am
    10    45    41    1
    11    47    49    1
    12    41    39    1
    13    36    34    1
    14    39    40    2
    15    39    37   am
    16    35    34    1
    17    34    33    1
    18    33    37    1
    19    33    31    1
    20    37    38    1
    21    32    31    2
    22    31    29   am
    23    30    29    1
    24    29     1    1
    25    56    54    1
    26    54    53    1
    27    54    55    1
    28     1    53    1
    29     1     2    1
    30    27     2    1
    31    27    28    1
    32     2     3    1
    33     3     4    1
    34     4     7    2
    35     4     5   am
    36     6     5    1
    37     5     8    1
    38     9     8    1
    39     8    10    1
    40    13    10    2
    41    10    11   am
    42    11    12    1
    43    11    14    2
    44    22    21    1
    45    20    19    1
    46    21    15    1
    47    14    15    1
    48    14    23    1
    49    26    24    1
    50    18    17    2
    51    19    17    1
    52    24    23    1
    53    24    25    1
    54    17    16    1
    55    15    16    1
