@<TRIPOS>MOLECULE
/tmp/ewbell/vina_2h6t_2h6t_lig/vina/vina5.pdbqt
 56 55 0 0 0
SMALL
GASTEIGER

@<TRIPOS>ATOM
      1  C10       -0.7080   20.8940    8.2460 C.3   344  INH344      0.1140
      2  C9        -0.2500   21.6600    9.4910 C.3   344  INH344      0.1490
      3  C8        -1.0480   22.9520    9.6640 C.3   344  INH344      0.1360
      4  C7        -1.1480   23.1740   11.1720 C.2   344  INH344      0.2200
      5  N2        -2.4010   23.1560   11.6190 N.am  344  INH344     -0.3480
      6  H8        -3.1470   22.9370   10.9900 H     344  INH344      0.1630
      7  O5        -0.1730   23.4320   11.8700 O.2   344  INH344     -0.2740
      8  C6        -2.7000   23.4530   13.0220 C.3   344  INH344      0.1720
      9  C24       -4.0920   24.0690   13.1360 C.3   344  INH344      0.0420
     10  C5        -2.7330   22.1210   13.7930 C.2   344  INH344      0.2400
     11  N1        -1.5810   21.5180   14.0670 N.am  344  INH344     -0.3520
     12  H6        -0.6900   21.9200   13.8500 H     344  INH344      0.1630
     13  O4        -3.8070   21.6100   14.0690 O.2   344  INH344     -0.2710
     14  C4        -1.7270   20.2250   14.7110 C.2   344  INH344      0.1140
     15  C3        -1.5660   20.1600   16.2300 C.3   344  INH344      0.1500
     16  C2        -1.4870   18.6940   16.6610 C.3   344  INH344      0.1430
     17  C1        -1.1340   18.5310   18.1400 C.2   344  INH344      0.1410
     18  O2        -1.4350   19.4870   18.8920 O.2   344  INH344     -0.6500
     19  O1        -0.6210   17.4480   18.5080 O.3   344  INH344     -0.7760
     20  H         -0.8060   17.1070   19.3600 H     344  INH344      0.1670
     21  O3        -2.6970   20.7590   16.8590 O.3   344  INH344     -0.3930
     22  H4        -3.2380   20.0820   17.2470 H     344  INH344      0.2100
     23  C20       -1.1450   19.0090   13.9440 C.3   344  INH344      0.0310
     24  C21        0.3350   19.0440   13.5980 C.3   344  INH344     -0.0210
     25  C23        0.6360   19.3000   12.1070 C.3   344  INH344      0.0090
     26  C22        1.1210   17.8260   14.1120 C.3   344  INH344      0.0090
     27  O6         1.1510   21.9440    9.4230 O.3   344  INH344     -0.3930
     28  H12        1.5260   21.5020    8.6710 H     344  INH344      0.2100
     29  N3         0.1230   21.3210    7.1140 N.am  344  INH344     -0.3520
     30  H16        1.0650   20.9900    7.0600 H     344  INH344      0.1630
     31  C12       -0.3250   22.1300    6.1560 C.2   344  INH344      0.2410
     32  O7        -1.4580   22.6030    6.1070 O.2   344  INH344     -0.2710
     33  C13        0.6800   22.3660    5.0290 C.3   344  INH344      0.1800
     34  C28        1.7880   21.3100    5.0750 C.3   344  INH344      0.0090
     35  C30        2.9750   21.8010    5.9050 C.3   344  INH344      0.0120
     36  C29        2.2460   20.9610    3.6570 C.3   344  INH344      0.0120
     37  N4         1.1850   23.7190    5.2860 N.am  344  INH344     -0.3460
     38  H18        1.6890   23.8780    6.1330 H     344  INH344      0.1630
     39  C14        1.0110   24.7490    4.4540 C.2   344  INH344      0.2410
     40  O8         1.4340   25.8810    4.6440 O.2   344  INH344     -0.2710
     41  C15        0.1720   24.4010    3.2210 C.3   344  INH344      0.1800
     42  C31        1.1010   23.9610    2.0860 C.3   344  INH344      0.0090
     43  C33        1.6560   25.1510    1.3000 C.3   344  INH344      0.0120
     44  C32        0.3830   22.9960    1.1400 C.3   344  INH344      0.0120
     45  N5        -0.6120   25.5740    2.8120 N.am  344  INH344     -0.3470
     46  H20       -0.1650   26.3010    2.2890 H     344  INH344      0.1630
     47  C16       -1.8990   25.6950    3.1190 C.2   344  INH344      0.2180
     48  O9        -2.6030   26.6500    2.7910 O.2   344  INH344     -0.2740
     49  C17       -2.4650   24.5220    3.9230 C.3   344  INH344      0.1060
     50  C18       -3.4010   23.6500    3.0830 C.3   344  INH344     -0.0140
     51  C34       -2.7890   22.2600    2.8970 C.3   344  INH344      0.0100
     52  C19       -3.6980   24.2740    1.7180 C.3   344  INH344      0.0100
     53  C11       -0.5370   19.3840    8.4340 C.3   344  INH344      0.0310
     54  C25        0.7150   18.8910    7.7040 C.3   344  INH344     -0.0210
     55  C27        1.7930   18.4830    8.7090 C.3   344  INH344      0.0090
     56  C26        0.4150   17.7510    6.7270 C.3   344  INH344      0.0090
@<TRIPOS>BOND
     1    44    42    1
     2    43    42    1
     3    52    50    1
     4    42    41    1
     5    46    45    1
     6    48    47    2
     7    45    47   am
     8    45    41    1
     9    51    50    1
    10    50    49    1
    11    47    49    1
    12    41    39    1
    13    36    34    1
    14    39    40    2
    15    39    37   am
    16    33    34    1
    17    33    37    1
    18    33    31    1
    19    34    35    1
    20    37    38    1
    21    32    31    2
    22    31    29   am
    23    56    54    1
    24    30    29    1
    25    29     1    1
    26    54    53    1
    27    54    55    1
    28     1    53    1
    29     1     2    1
    30    28    27    1
    31    27     2    1
    32     2     3    1
    33     3     4    1
    34     6     5    1
    35     4     5   am
    36     4     7    2
    37     5     8    1
    38    25    24    1
    39     8     9    1
    40     8    10    1
    41    24    23    1
    42    24    26    1
    43    10    11   am
    44    10    13    2
    45    12    11    1
    46    23    14    1
    47    11    14    2
    48    14    15    1
    49    15    16    1
    50    15    21    1
    51    16    17    1
    52    21    22    1
    53    17    19    1
    54    17    18    2
    55    19    20    1
