@<TRIPOS>MOLECULE
./ligand/2r75_lig.pdb
 57 60 0 0 0
SMALL
GASTEIGER

@<TRIPOS>ATOM
      1  C1        -8.7420   -2.9100   14.4070 C.3   327  INH327      0.0383
      2  C2       -10.1330   -3.4170   14.2970 C.3   327  INH327      0.0635
      3  O1       -11.0180   -2.8970   15.2630 O.3   327  INH327     -0.3767
      4  C3       -10.6170   -3.2660   16.5870 C.3   327  INH327      0.0635
      5  C4        -9.1580   -2.8950   16.8610 C.3   327  INH327      0.0383
      6  N1        -8.2380   -3.1480   15.7120 N.pl3 327  INH327     -0.2965
      7  C5        -6.9450   -3.0570   15.9020 C.ar  327  INH327      0.2028
      8  N2        -6.5290   -1.9910   16.5820 N.ar  327  INH327     -0.2071
      9  C6        -5.1900   -2.1140   16.6650 C.ar  327  INH327      0.1740
     10  C7        -4.2130   -1.3620   17.2930 C.ar  327  INH327      0.2804
     11  O2        -4.4360   -0.2520   17.8500 O.2   327  INH327     -0.2654
     12  N3        -2.9550   -1.8310   17.2080 N.ar  327  INH327     -0.2934
     13  C8        -2.6160   -2.9620   16.6030 C.ar  327  INH327      0.1950
     14  N4        -1.3080   -3.2890   16.5960 N.pl3 327  INH327     -0.3289
     15  N5        -3.5150   -3.7180   16.0080 N.ar  327  INH327     -0.1963
     16  C9        -4.8060   -3.2990   16.0490 C.ar  327  INH327      0.1726
     17  N6        -5.8980   -3.8800   15.5480 N.ar  327  INH327     -0.2668
     18  C10       -5.8650   -5.1340   14.8810 C.3   327  INH327      0.1682
     19  O3        -5.8630   -4.8270   13.4070 O.3   327  INH327     -0.3456
     20  C11       -6.9730   -6.1220   15.0740 C.3   327  INH327      0.1286
     21  O4        -6.4190   -7.3450   15.5850 O.3   327  INH327     -0.3847
     22  C12       -7.6420   -6.2630   13.6860 C.3   327  INH327      0.1135
     23  O5        -8.1590   -7.5510   13.4660 O.3   327  INH327     -0.3864
     24  C13       -6.5570   -5.9440   12.7390 C.3   327  INH327      0.1133
     25  C14       -7.0540   -5.4070   11.3880 C.3   327  INH327      0.0836
     26  O6        -7.8640   -4.2970   11.5770 O.3   327  INH327     -0.3246
     27  P1        -7.4970   -2.9230   10.9000 P.3   327  INH327      0.2182
     28  O7        -8.2600   -1.8470   11.6100 O.3   327  INH327     -0.4371
     29  O8        -6.0250   -2.7410   10.8090 O.2   327  INH327     -0.5170
     30  O9        -8.1130   -3.0840    9.4210 O.3   327  INH327     -0.2700
     31  P2        -7.5550   -2.3550    8.1180 P.3   327  INH327      0.2277
     32  O10       -7.4880   -0.8890    8.3640 O.3   327  INH327     -0.4368
     33  O11       -6.2950   -2.9790    7.6660 O.2   327  INH327     -0.5168
     34  O12       -8.6860   -2.6920    7.0830 O.3   327  INH327     -0.2258
     35  P3       -10.0510   -1.8660    6.5280 P.3   327  INH327      0.5373
     36  O13      -10.4190   -0.9860    7.7760 O.3   327  INH327     -0.1143
     37  O14       -9.5680   -0.9810    5.3150 O.3   327  INH327     -0.1143
     38  O15      -10.9480   -2.9910    6.1810 O.2   327  INH327     -0.2221
     39  H1        -8.1070   -3.4270   13.6720 H     327  INH327      0.0487
     40  H2        -8.7320   -1.8290   14.2050 H     327  INH327      0.0487
     41  H3       -10.1100   -4.5110   14.4040 H     327  INH327      0.0575
     42  H4       -10.5180   -3.1540   13.3000 H     327  INH327      0.0575
     43  H5       -10.7370   -4.3530   16.7060 H     327  INH327      0.0575
     44  H6       -11.2590   -2.7450   17.3120 H     327  INH327      0.0575
     45  H7        -9.1150   -1.8240   17.1090 H     327  INH327      0.0487
     46  H8        -8.8070   -3.4850   17.7210 H     327  INH327      0.0487
     47  H9        -0.6230   -2.6820   17.0680 H     327  INH327      0.1451
     48  H10       -0.9940   -4.1460   16.1180 H     327  INH327      0.1451
     49  H11       -2.2050   -1.2750   17.6420 H     327  INH327      0.1716
     50  H12       -4.9270   -5.6310   15.1690 H     327  INH327      0.0867
     51  H13       -7.7090   -5.7390   15.7970 H     327  INH327      0.0665
     52  H14       -7.1150   -7.9790   15.7110 H     327  INH327      0.2101
     53  H15       -8.4610   -5.5360   13.5860 H     327  INH327      0.0647
     54  H16       -8.8530   -7.7240   14.0900 H     327  INH327      0.2100
     55  H17       -5.9010   -6.8140   12.5840 H     327  INH327      0.0647
     56  H18       -6.1890   -5.1230   10.7700 H     327  INH327      0.0591
     57  H19       -7.6290   -6.1920   10.8750 H     327  INH327      0.0591
@<TRIPOS>BOND
     1     1    40    1
     2     1    39    1
     3     1     6    1
     4     1     2    1
     5     2    42    1
     6     2    41    1
     7     2     3    1
     8     3     4    1
     9     4    44    1
    10     4    43    1
    11     4     5    1
    12     5    46    1
    13     5    45    1
    14     5     6    1
    15     6     7    1
    16     7    17   ar
    17     7     8   ar
    18     8     9   ar
    19     9    16   ar
    20     9    10   ar
    21    10    12   ar
    22    10    11    2
    23    12    49    1
    24    12    13   ar
    25    13    15   ar
    26    13    14    1
    27    14    48    1
    28    14    47    1
    29    15    16   ar
    30    16    17   ar
    31    17    18    1
    32    18    50    1
    33    18    20    1
    34    18    19    1
    35    19    24    1
    36    20    22    1
    37    20    51    1
    38    20    21    1
    39    21    52    1
    40    22    24    1
    41    22    53    1
    42    22    23    1
    43    23    54    1
    44    24    55    1
    45    24    25    1
    46    25    57    1
    47    25    56    1
    48    25    26    1
    49    26    27    1
    50    27    30    1
    51    27    29    2
    52    27    28    1
    53    30    31    1
    54    31    34    1
    55    31    33    2
    56    31    32    1
    57    34    35    1
    58    35    38    2
    59    35    37    1
    60    35    36    1
