@<TRIPOS>MOLECULE
/tmp/ewbell/vina_2r75_2r75_lig/vina/vina4.pdbqt
 49 52 0 0 0
SMALL
GASTEIGER

@<TRIPOS>ATOM
      1  C10       -8.0980   -2.2490   13.8630 C.3   327  INH327      0.2790
      2  O3        -9.3040   -3.1160   13.6160 O.3   327  INH327     -0.3530
      3  C11       -7.8420   -1.5550   12.5620 C.3   327  INH327      0.1990
      4  C12       -8.8730   -2.1470   11.5710 C.3   327  INH327      0.1820
      5  C13       -9.9940   -2.5600   12.4370 C.3   327  INH327      0.1800
      6  N6        -7.1100   -3.0970   14.4310 N.pl3 327  INH327     -0.1350
      7  C5        -6.3330   -2.9690   15.5630 C.3   327  INH327      0.6870
      8  N1        -6.2330   -2.0180   16.4570 N.3   327  INH327     -0.2130
      9  N2        -5.5710   -4.0420   15.7640 N.pl3 327  INH327     -0.1820
     10  C1        -7.3770   -1.2210   16.7200 C.3   327  INH327      0.1670
     11  C4        -4.8950   -1.4060   16.7170 C.3   327  INH327      0.1670
     12  C2        -7.2000   -0.4740   17.9900 C.3   327  INH327      0.1880
     13  O1        -6.0330    0.3160   18.0390 O.3   327  INH327     -0.3880
     14  C3        -4.8540   -0.4890   17.9410 C.3   327  INH327      0.1880
     15  C6        -5.8460   -4.8780   14.7430 C.2   327  INH327      0.1630
     16  H2        -4.9160   -4.1980   16.5300 H     327  INH327      0.1840
     17  C9        -6.8200   -4.3020   13.9370 C.2   327  INH327      0.1740
     18  C7        -5.4210   -6.1590   14.4360 C.2   327  INH327      0.2900
     19  N5        -7.3330   -4.9290   12.8470 N.pl3 327  INH327     -0.1730
     20  C8        -6.8870   -6.1390   12.5810 C.3   327  INH327      0.6800
     21  H5        -8.0350   -4.4810   12.2590 H     327  INH327      0.1860
     22  N3        -5.9650   -6.7180   13.3400 N.am  327  INH327     -0.1540
     23  N4        -7.3250   -6.8290   11.5090 N.3   327  INH327     -0.2340
     24  H11       -5.6450   -7.6590   13.0720 H     327  INH327      0.1870
     25  H10       -8.0230   -6.4100   10.8770 H     327  INH327      0.1740
     26  H9        -6.9610   -7.7730   11.3210 H     327  INH327      0.1740
     27  O2        -4.5170   -6.7660   15.0720 O.2   327  INH327     -0.2650
     28  O4        -7.9670   -0.1380   12.7600 O.3   327  INH327     -0.3880
     29  H14       -8.4380    0.2440   12.0290 H     327  INH327      0.2100
     30  O5        -9.2830   -1.2170   10.6010 O.3   327  INH327     -0.3900
     31  H16       -9.5640   -0.4180   11.0280 H     327  INH327      0.2100
     32  C14      -10.8430   -3.6970   11.8480 C.3   327  INH327      0.2150
     33  O6       -10.5970   -3.8300   10.4890 O.3   327  INH327     -0.2940
     34  P1       -11.7690   -3.6630    9.4510 P.3   327  INH327      0.4010
     35  O8       -12.9760   -4.4240    9.8700 O.2   327  INH327     -0.6310
     36  O9       -12.0770   -2.0840    9.5190 O.3   327  INH327     -0.1950
     37  P2       -12.1560   -1.1170    8.2550 P.3   327  INH327      0.4100
     38  O11      -12.5260    0.2530    8.6630 O.2   327  INH327     -0.6310
     39  O12      -10.6570   -1.1170    7.7880 O.3   327  INH327     -0.1950
     40  P3        -9.8700   -1.5910    6.3700 P.3   327  INH327      0.3990
     41  O15       -8.7220   -2.3480    6.9160 O.2   327  INH327     -0.6310
     42  O14       -9.5070   -0.2620    5.6020 O.3   327  INH327     -0.3070
     43  H         -9.8190    0.5020    6.1120 H     327  INH327      0.2220
     44  O13      -11.0010   -2.3940    5.6330 O.3   327  INH327     -0.3070
     45  H        -11.3140   -3.1110    6.2060 H     327  INH327      0.2220
     46  O10      -13.0290   -1.7310    7.2170 O.3   327  INH327     -0.3070
     47  H        -12.4860   -2.2550    6.6080 H     327  INH327      0.2220
     48  O7       -11.2220   -3.9750    8.0910 O.3   327  INH327     -0.3070
     49  H        -10.7850   -3.1880    7.7310 H     327  INH327      0.2220
@<TRIPOS>BOND
     1    42    43    1
     2    42    40    1
     3    44    45    1
     4    44    40    1
     5    40    41    2
     6    40    39    1
     7    47    46    1
     8    46    37    1
     9    49    48    1
    10    39    37    1
    11    48    34    1
    12    37    38    2
    13    37    36    1
    14    34    36    1
    15    34    35    2
    16    34    33    1
    17    33    32    1
    18    30    31    1
    19    30     4    1
    20    25    23    1
    21    26    23    1
    22    23    20    1
    23     4     5    1
    24     4     3    1
    25    32     5    1
    26    29    28    1
    27    21    19    1
    28     5     2    1
    29     3    28    1
    30     3     1    1
    31    20    19    1
    32    20    22    1
    33    19    17    1
    34    24    22    1
    35    22    18   am
    36     2     1    1
    37     1     6    1
    38    17     6    1
    39    17    15    2
    40     6     7    1
    41    18    15    1
    42    18    27    2
    43    15     9    1
    44     7     9    1
    45     7     8    1
    46     9    16    1
    47     8    11    1
    48     8    10    1
    49    11    14    1
    50    10    12    1
    51    14    13    1
    52    12    13    1
