@<TRIPOS>MOLECULE
/tmp/ewbell/vina_2r75_2r75_lig/vina/vina5.pdbqt
 49 52 0 0 0
SMALL
GASTEIGER

@<TRIPOS>ATOM
      1  C10       -7.6260   -2.6070   11.1150 C.3   327  INH327      0.2790
      2  O3        -7.8860   -1.7160    9.9300 O.3   327  INH327     -0.3530
      3  C11       -7.0120   -3.8480   10.5440 C.3   327  INH327      0.1990
      4  C12       -7.0450   -3.6530    9.0100 C.3   327  INH327      0.1820
      5  C13       -7.0090   -2.1880    8.8420 C.3   327  INH327      0.1800
      6  N6        -8.8480   -2.6780   11.8360 N.pl3 327  INH327     -0.1350
      7  C5        -9.1620   -2.3640   13.1400 C.3   327  INH327      0.6870
      8  N1        -8.4340   -1.9350   14.1410 N.3   327  INH327     -0.2130
      9  N2       -10.4610   -2.5200   13.3880 N.pl3 327  INH327     -0.1820
     10  C1        -7.2970   -1.1390   13.8490 C.3   327  INH327      0.1670
     11  C4        -8.4180   -2.7170   15.4130 C.3   327  INH327      0.1670
     12  C2        -6.8300   -0.4440   15.0750 C.3   327  INH327      0.1880
     13  O1        -6.5590   -1.3030   16.1600 O.3   327  INH327     -0.3880
     14  C3        -7.7380   -1.9980   16.5800 C.3   327  INH327      0.1880
     15  C6       -11.0010   -2.9510   12.2310 C.2   327  INH327      0.1630
     16  H2       -10.9450   -2.3490   14.2690 H     327  INH327      0.1840
     17  C9       -10.0050   -3.0190   11.2650 C.2   327  INH327      0.1740
     18  C7       -12.3010   -3.2280   11.8460 C.2   327  INH327      0.2900
     19  N5       -10.2540   -3.3830    9.9810 N.pl3 327  INH327     -0.1730
     20  C8       -11.5020   -3.6560    9.6620 C.3   327  INH327      0.6800
     21  H5        -9.5050   -3.4440    9.2920 H     327  INH327      0.1860
     22  N3       -12.4760   -3.5890   10.5620 N.am  327  INH327     -0.1540
     23  N4       -11.8410   -4.0460    8.4160 N.3   327  INH327     -0.2340
     24  H11      -13.4290   -3.8290   10.2560 H     327  INH327      0.1870
     25  H10      -11.1150   -4.1350    7.6900 H     327  INH327      0.1740
     26  H9       -12.8230   -4.2540    8.1910 H     327  INH327      0.1740
     27  O2       -13.2790   -3.2360   12.6420 O.2   327  INH327     -0.2650
     28  O4        -5.6920   -4.0040   11.0880 O.3   327  INH327     -0.3880
     29  H14       -5.5940   -3.4420   11.8470 H     327  INH327      0.2100
     30  O5        -5.9620   -4.2740    8.3650 O.3   327  INH327     -0.3900
     31  H16       -5.3130   -3.6200    8.1360 H     327  INH327      0.2100
     32  C14       -7.6390   -1.7010    7.5280 C.3   327  INH327      0.2150
     33  O6        -8.7890   -2.4250    7.2450 O.3   327  INH327     -0.2940
     34  P1       -10.0190   -1.7220    6.5580 P.3   327  INH327      0.4010
     35  O8       -10.8470   -2.6980    5.8020 O.2   327  INH327     -0.6310
     36  O9       -10.8550   -1.1650    7.8160 O.3   327  INH327     -0.1950
     37  P2       -12.2570   -0.4140    7.7180 P.3   327  INH327      0.4100
     38  O11      -13.3340   -1.2330    8.3110 O.2   327  INH327     -0.6310
     39  O12      -11.9950    0.8250    8.6450 O.3   327  INH327     -0.1950
     40  P3       -11.6600    1.0080   10.2910 P.3   327  INH327      0.3990
     41  O15      -11.5900    2.4810   10.4100 O.2   327  INH327     -0.6310
     42  O14      -10.3100    0.2380   10.5540 O.3   327  INH327     -0.3070
     43  H         -9.8570    0.6310   11.3160 H     327  INH327      0.2220
     44  O13      -12.8830    0.2720   10.9470 O.3   327  INH327     -0.3070
     45  H        -12.5980   -0.1610   11.7670 H     327  INH327      0.2220
     46  O10      -12.4860    0.0200    6.3130 O.3   327  INH327     -0.3070
     47  H        -11.9140   -0.4910    5.7190 H     327  INH327      0.2220
     48  O7        -9.4990   -0.5470    5.7860 O.3   327  INH327     -0.3070
     49  H         -8.7540   -0.8280    5.2330 H     327  INH327      0.2220
@<TRIPOS>BOND
     1    49    48    1
     2    47    46    1
     3    48    34    1
     4    35    34    2
     5    46    37    1
     6    34    33    1
     7    34    36    1
     8    33    32    1
     9    32     5    1
    10    25    23    1
    11    37    36    1
    12    37    38    2
    13    37    39    1
    14    31    30    1
    15    26    23    1
    16    30     4    1
    17    23    20    1
    18    39    40    1
    19     5     4    1
    20     5     2    1
    21     4     3    1
    22    21    19    1
    23    20    19    1
    24    20    22    1
    25     2     1    1
    26    19    17    1
    27    24    22    1
    28    40    41    2
    29    40    42    1
    30    40    44    1
    31     3    28    1
    32     3     1    1
    33    42    43    1
    34    22    18   am
    35    44    45    1
    36    28    29    1
    37     1     6    1
    38    17     6    1
    39    17    15    2
    40     6     7    1
    41    18    15    1
    42    18    27    2
    43    15     9    1
    44     7     9    1
    45     7     8    1
    46     9    16    1
    47    10     8    1
    48    10    12    1
    49     8    11    1
    50    12    13    1
    51    11    14    1
    52    13    14    1
