@<TRIPOS>MOLECULE
/tmp/ewbell/vina_2r75_2r75_lig/vina/vina2.pdbqt
 49 52 0 0 0
SMALL
GASTEIGER

@<TRIPOS>ATOM
      1  C10       -8.9010   -1.3040   13.8250 C.3   327  INH327      0.2790
      2  O3        -9.9180   -2.2300   13.2120 O.3   327  INH327     -0.3530
      3  C11       -8.5290   -0.3520   12.7310 C.3   327  INH327      0.1990
      4  C12       -9.2890   -0.8500   11.4790 C.3   327  INH327      0.1820
      5  C13      -10.4710   -1.5350   12.0340 C.3   327  INH327      0.1800
      6  N6        -7.9140   -2.1350   14.4190 N.pl3 327  INH327     -0.1350
      7  C5        -7.3840   -2.1630   15.6910 C.3   327  INH327      0.6870
      8  N1        -7.5940   -1.4180   16.7480 N.3   327  INH327     -0.2130
      9  N2        -6.5160   -3.1610   15.8430 N.pl3 327  INH327     -0.1820
     10  C1        -8.8750   -0.8310   16.9100 C.3   327  INH327      0.1670
     11  C4        -6.4350   -0.7280   17.3890 C.3   327  INH327      0.1670
     12  C2        -9.0470   -0.3550   18.3050 C.3   327  INH327      0.1880
     13  O1        -8.0440    0.5340   18.7420 O.3   327  INH327     -0.3880
     14  C3        -6.7570   -0.0940   18.7440 C.3   327  INH327      0.1880
     15  C6        -6.4700   -3.7870   14.6510 C.2   327  INH327      0.1630
     16  H2        -5.9950   -3.4010   16.6870 H     327  INH327      0.1840
     17  C9        -7.3590   -3.1670   13.7810 C.2   327  INH327      0.1740
     18  C7        -5.8060   -4.9170   14.2070 C.2   327  INH327      0.2900
     19  N5        -7.5640   -3.6020   12.5120 N.pl3 327  INH327     -0.1730
     20  C8        -6.8980   -4.6700   12.1240 C.3   327  INH327      0.6800
     21  H5        -8.2080   -3.1220   11.8840 H     327  INH327      0.1860
     22  N3        -6.0510   -5.2880   12.9370 N.am  327  INH327     -0.1540
     23  N4        -7.0230   -5.1620   10.8750 N.3   327  INH327     -0.2340
     24  H11       -5.5470   -6.1090   12.5720 H     327  INH327      0.1870
     25  H10       -7.6510   -4.7000   10.2000 H     327  INH327      0.1740
     26  H9        -6.4910   -5.9970   10.5950 H     327  INH327      0.1740
     27  O2        -4.9500   -5.5390   14.8920 O.2   327  INH327     -0.2650
     28  O4        -8.8800    0.9810   13.1390 O.3   327  INH327     -0.3880
     29  H14       -9.8250    1.0790   13.1180 H     327  INH327      0.2100
     30  O5        -9.6560    0.2000   10.6190 O.3   327  INH327     -0.3900
     31  H16      -10.2740   -0.1210    9.9740 H     327  INH327      0.2100
     32  C14      -11.0450   -2.6220   11.1120 C.3   327  INH327      0.2150
     33  O6       -11.8650   -2.0550   10.1480 O.3   327  INH327     -0.2940
     34  P1       -11.7810   -2.5380    8.6520 P.3   327  INH327      0.4010
     35  O8       -13.1000   -2.4380    7.9750 O.2   327  INH327     -0.6310
     36  O9       -10.7570   -1.4810    7.9980 O.3   327  INH327     -0.1950
     37  P2       -10.0870   -1.6320    6.5590 P.3   327  INH327      0.4100
     38  O11       -9.6480   -0.3200    6.0430 O.2   327  INH327     -0.6310
     39  O12       -8.8190   -2.4870    6.9120 O.3   327  INH327     -0.1950
     40  P3        -7.6760   -2.4310    8.1550 P.3   327  INH327      0.3990
     41  O15       -6.5280   -3.1190    7.5230 O.2   327  INH327     -0.6310
     42  O14       -8.3240   -3.1760    9.3840 O.3   327  INH327     -0.3070
     43  H         -8.1980   -4.1330    9.2860 H     327  INH327      0.2220
     44  O13       -7.5600   -0.8860    8.4110 O.3   327  INH327     -0.3070
     45  H         -7.0800   -0.4710    7.6770 H     327  INH327      0.2220
     46  O10      -11.0030   -2.3950    5.6670 O.3   327  INH327     -0.3070
     47  H        -10.6140   -3.2610    5.4710 H     327  INH327      0.2220
     48  O7       -11.1270   -3.8870    8.6450 O.3   327  INH327     -0.3070
     49  H        -10.1850   -3.7910    8.8510 H     327  INH327      0.2220
@<TRIPOS>BOND
     1    47    46    1
     2    46    37    1
     3    38    37    2
     4    37    39    1
     5    37    36    1
     6    39    40    1
     7    41    40    2
     8    45    44    1
     9    35    34    2
    10    36    34    1
    11    40    44    1
    12    40    42    1
    13    48    34    1
    14    48    49    1
    15    34    33    1
    16    43    42    1
    17    31    30    1
    18    33    32    1
    19    25    23    1
    20    26    23    1
    21    30     4    1
    22    23    20    1
    23    32     5    1
    24     4     5    1
    25     4     3    1
    26    21    19    1
    27     5     2    1
    28    20    19    1
    29    20    22    1
    30    19    17    1
    31    24    22    1
    32     3    28    1
    33     3     1    1
    34    22    18   am
    35    29    28    1
    36     2     1    1
    37    17     6    1
    38    17    15    2
    39     1     6    1
    40    18    15    1
    41    18    27    2
    42     6     7    1
    43    15     9    1
    44     7     9    1
    45     7     8    1
    46     9    16    1
    47     8    10    1
    48     8    11    1
    49    10    12    1
    50    11    14    1
    51    12    13    1
    52    13    14    1
