@<TRIPOS>MOLECULE
/tmp/ewbell/vina_2r75_2r75_lig/vina/vina3.pdbqt
 49 52 0 0 0
SMALL
GASTEIGER

@<TRIPOS>ATOM
      1  C10       -7.7760   -2.6000   12.4380 C.3   327  INH327      0.2790
      2  O3        -8.5020   -1.3010   12.6680 O.3   327  INH327     -0.3530
      3  C11       -7.6050   -2.6960   10.9540 C.3   327  INH327      0.1990
      4  C12       -8.3520   -1.4690   10.3760 C.3   327  INH327      0.1820
      5  C13       -8.2900   -0.4760   11.4650 C.3   327  INH327      0.1800
      6  N6        -8.5060   -3.5940   13.1420 N.pl3 327  INH327     -0.1350
      7  C5        -8.1000   -4.6110   13.9780 C.3   327  INH327      0.6870
      8  N1        -6.9140   -5.0080   14.3680 N.3   327  INH327     -0.2130
      9  N2        -9.1340   -5.2800   14.4830 N.pl3 327  INH327     -0.1820
     10  C1        -5.8790   -4.0410   14.4540 C.3   327  INH327      0.1670
     11  C4        -6.5110   -6.4270   14.1330 C.3   327  INH327      0.1670
     12  C2        -4.7470   -4.5740   15.2520 C.3   327  INH327      0.1880
     13  O1        -4.2320   -5.7990   14.7820 O.3   327  INH327     -0.3880
     14  C3        -5.2180   -6.8350   14.8410 C.3   327  INH327      0.1880
     15  C6       -10.2320   -4.6990   13.9610 C.2   327  INH327      0.1630
     16  H2        -9.1020   -6.0680   15.1300 H     327  INH327      0.1840
     17  C9        -9.8400   -3.6370   13.1540 C.2   327  INH327      0.1740
     18  C7       -11.5870   -4.9070   14.1510 C.2   327  INH327      0.2900
     19  N5       -10.7310   -2.8320   12.5210 N.pl3 327  INH327     -0.1730
     20  C8       -12.0100   -3.0770   12.7150 C.3   327  INH327      0.6800
     21  H5       -10.4220   -2.0690   11.9200 H     327  INH327      0.1860
     22  N3       -12.4130   -4.0770   13.4880 N.am  327  INH327     -0.1540
     23  N4       -12.9660   -2.3420   12.1110 N.3   327  INH327     -0.2340
     24  H11      -13.4260   -4.2280   13.5890 H     327  INH327      0.1870
     25  H10      -12.7010   -1.5690   11.4820 H     327  INH327      0.1740
     26  H9       -13.9600   -2.5520   12.2780 H     327  INH327      0.1740
     27  O2       -12.0590   -5.8600   14.8280 O.2   327  INH327     -0.2650
     28  O4        -6.2020   -2.7250   10.6500 O.3   327  INH327     -0.3880
     29  H14       -5.7640   -3.3330   11.2330 H     327  INH327      0.2100
     30  O5        -7.7590   -0.9840    9.1980 O.3   327  INH327     -0.3900
     31  H16       -7.2850   -0.1840    9.3890 H     327  INH327      0.2100
     32  C14       -9.4320    0.5510   11.4290 C.3   327  INH327      0.2150
     33  O6       -10.5290    0.0320   10.7580 O.3   327  INH327     -0.2940
     34  P1       -11.7060    0.9770   10.3110 P.3   327  INH327      0.4010
     35  O8       -11.3260    2.4090   10.4340 O.2   327  INH327     -0.6310
     36  O9       -11.8900    0.5990    8.7560 O.3   327  INH327     -0.1950
     37  P2       -12.0810   -0.8800    8.1960 P.3   327  INH327      0.4100
     38  O11      -12.9250   -0.8780    6.9840 O.2   327  INH327     -0.6310
     39  O12      -10.6080   -1.2330    7.7850 O.3   327  INH327     -0.1950
     40  P3        -9.8690   -1.6660    6.3290 P.3   327  INH327      0.3990
     41  O15       -8.6910   -2.4180    6.8150 O.2   327  INH327     -0.6310
     42  O14       -9.5530   -0.3180    5.5760 O.3   327  INH327     -0.3070
     43  H         -8.8360   -0.4630    4.9380 H     327  INH327      0.2220
     44  O13      -11.0160   -2.4710    5.6180 O.3   327  INH327     -0.3070
     45  H        -11.8660   -2.0320    5.7780 H     327  INH327      0.2220
     46  O10      -12.5460   -1.7680    9.2960 O.3   327  INH327     -0.3070
     47  H        -11.7810   -2.0830    9.8020 H     327  INH327      0.2220
     48  O7       -12.9400    0.5480   11.0460 O.3   327  INH327     -0.3070
     49  H        -12.8910   -0.4020   11.2320 H     327  INH327      0.2220
@<TRIPOS>BOND
     1    43    42    1
     2    42    40    1
     3    44    45    1
     4    44    40    1
     5    40    41    2
     6    40    39    1
     7    38    37    2
     8    39    37    1
     9    37    36    1
    10    37    46    1
    11    36    34    1
    12    30    31    1
    13    30     4    1
    14    46    47    1
    15    34    35    2
    16    34    33    1
    17    34    48    1
    18     4     3    1
    19     4     5    1
    20    28     3    1
    21    28    29    1
    22    33    32    1
    23     3     1    1
    24    48    49    1
    25    32     5    1
    26     5     2    1
    27    25    23    1
    28    21    19    1
    29    23    26    1
    30    23    20    1
    31     1     2    1
    32     1     6    1
    33    19    20    1
    34    19    17    1
    35    20    22    1
    36     6    17    1
    37     6     7    1
    38    17    15    2
    39    22    24    1
    40    22    18   am
    41    15    18    1
    42    15     9    1
    43     7     8    1
    44     7     9    1
    45    11     8    1
    46    11    14    1
    47    18    27    2
    48     8    10    1
    49    10    12    1
    50     9    16    1
    51    13    14    1
    52    13    12    1
