@<TRIPOS>MOLECULE
/tmp/ewbell/vina_2r75_2r75_lig/vina/vina1.pdbqt
 49 52 0 0 0
SMALL
GASTEIGER

@<TRIPOS>ATOM
      1  C10       -5.6410   -5.1330   14.4510 C.3   327  INH327      0.2790
      2  O3        -6.1100   -4.8150   13.0570 O.3   327  INH327     -0.3530
      3  C11       -6.4290   -6.3370   14.8650 C.3   327  INH327      0.1990
      4  C12       -7.4150   -6.6000   13.7020 C.3   327  INH327      0.1820
      5  C13       -6.7230   -6.0460   12.5230 C.3   327  INH327      0.1800
      6  N6        -5.7380   -3.9230   15.1900 N.pl3 327  INH327     -0.1350
      7  C5        -6.8170   -3.1250   15.5020 C.3   327  INH327      0.6870
      8  N1        -8.0880   -3.2040   15.1950 N.3   327  INH327     -0.2130
      9  N2        -6.4680   -2.1030   16.2800 N.pl3 327  INH327     -0.1820
     10  C1        -8.6480   -4.4910   14.9850 C.3   327  INH327      0.1670
     11  C4        -8.7400   -2.0500   14.5060 C.3   327  INH327      0.1670
     12  C2       -10.1300   -4.4170   15.0250 C.3   327  INH327      0.1880
     13  O1       -10.6880   -3.4890   14.1220 O.3   327  INH327     -0.3880
     14  C3       -10.2640   -2.1540   14.4200 C.3   327  INH327      0.1880
     15  C6        -5.1400   -2.2300   16.4710 C.2   327  INH327      0.1630
     16  H2        -7.0780   -1.3760   16.6540 H     327  INH327      0.1840
     17  C9        -4.6970   -3.3740   15.8190 C.2   327  INH327      0.1740
     18  C7        -4.2260   -1.5180   17.2280 C.2   327  INH327      0.2900
     19  N5        -3.4060   -3.7890   15.8640 N.pl3 327  INH327     -0.1730
     20  C8        -2.5660   -3.0720   16.5800 C.3   327  INH327      0.6800
     21  H5        -3.0990   -4.6220   15.3630 H     327  INH327      0.1860
     22  N3        -2.9630   -1.9810   17.2220 N.am  327  INH327     -0.1540
     23  N4        -1.2600   -3.3970   16.6670 N.3   327  INH327     -0.2340
     24  H11       -2.2560   -1.4530   17.7540 H     327  INH327      0.1870
     25  H10       -0.9000   -4.2220   16.1650 H     327  INH327      0.1740
     26  H9        -0.6220   -2.8210   17.2330 H     327  INH327      0.1740
     27  O2        -4.5030   -0.4460   17.8300 O.2   327  INH327     -0.2650
     28  O4        -5.5200   -7.4200   15.1200 O.3   327  INH327     -0.3880
     29  H14       -6.0110   -8.2270   15.2250 H     327  INH327      0.2100
     30  O5        -7.7020   -7.9660   13.5390 O.3   327  INH327     -0.3900
     31  H16       -8.5290   -8.0630   13.0820 H     327  INH327      0.2100
     32  C14       -7.6730   -5.6110   11.3970 C.3   327  INH327      0.2150
     33  O6        -7.1930   -4.4690   10.7730 O.3   327  INH327     -0.2940
     34  P1        -8.0840   -3.1730   10.6940 P.3   327  INH327      0.4010
     35  O8        -7.2940   -1.9520   10.9990 O.2   327  INH327     -0.6310
     36  O9        -8.5370   -3.1510    9.1490 O.3   327  INH327     -0.1950
     37  P2        -7.7160   -2.4640    7.9690 P.3   327  INH327      0.4100
     38  O11       -6.5490   -3.2880    7.5920 O.2   327  INH327     -0.6310
     39  O12       -8.7680   -2.5180    6.8050 O.3   327  INH327     -0.1950
     40  P3       -10.1650   -1.6370    6.4460 P.3   327  INH327      0.3990
     41  O15      -10.9460   -2.6340    5.6810 O.2   327  INH327     -0.6310
     42  O14       -9.6910   -0.3720    5.6320 O.3   327  INH327     -0.3070
     43  H         -9.0370    0.1200    6.1510 H     327  INH327      0.2220
     44  O13      -10.6700   -1.2450    7.8810 O.3   327  INH327     -0.3070
     45  H        -11.4080   -1.8220    8.1320 H     327  INH327      0.2220
     46  O10       -7.4100   -1.0550    8.3360 O.3   327  INH327     -0.3070
     47  H         -8.2200   -0.5240    8.2790 H     327  INH327      0.2220
     48  O7        -9.3030   -3.4070   11.5350 O.3   327  INH327     -0.3070
     49  H         -9.0460   -3.4570   12.4680 H     327  INH327      0.2220
@<TRIPOS>BOND
     1    42    43    1
     2    42    40    1
     3    41    40    2
     4    40    39    1
     5    40    44    1
     6    39    37    1
     7    38    37    2
     8    44    45    1
     9    37    46    1
    10    37    36    1
    11    47    46    1
    12    36    34    1
    13    34    33    1
    14    34    35    2
    15    34    48    1
    16    33    32    1
    17    32     5    1
    18    48    49    1
    19     5     2    1
    20     5     4    1
    21     2     1    1
    22    31    30    1
    23    30     4    1
    24     4     3    1
    25    13    14    1
    26    13    12    1
    27    14    11    1
    28     1     3    1
    29     1     6    1
    30    11     8    1
    31     3    28    1
    32    10    12    1
    33    10     8    1
    34    28    29    1
    35     6     7    1
    36     6    17    1
    37     8     7    1
    38    21    19    1
    39     7     9    1
    40    17    19    1
    41    17    15    2
    42    19    20    1
    43    25    23    1
    44     9    15    1
    45     9    16    1
    46    15    18    1
    47    20    23    1
    48    20    22    1
    49    23    26    1
    50    22    18   am
    51    22    24    1
    52    18    27    2
