@<TRIPOS>MOLECULE
./ligand/2z4b_lig.pdb
 39 42 0 0 0
SMALL
GASTEIGER

@<TRIPOS>ATOM
      1  C1        78.2600   40.8340   69.8430 C.ar  462  INH462      0.1251
      2  C2        77.1140   38.7230   70.0700 C.3   462  INH462      0.1287
      3  C3        76.6010   38.8260   68.6060 C.3   462  INH462      0.0128
      4  C4        75.2700   39.6550   68.4640 C.3   462  INH462      0.0178
      5  C5        77.5710   39.6040   67.6790 C.3   462  INH462     -0.0002
      6  C6        78.3850   40.6910   68.4310 C.ar  462  INH462      0.0014
      7  C7        75.3940   36.7880   70.6010 C.ar  462  INH462     -0.0516
      8  C8        74.5450   36.0760   71.4990 C.ar  462  INH462     -0.0198
      9  C9        74.4340   36.4900   72.8470 C.ar  462  INH462      0.1169
     10  C10       75.1660   37.6160   73.3030 C.ar  462  INH462     -0.0198
     11  C11       80.0240   42.5650   68.3980 C.ar  462  INH462      0.1174
     12  C12       79.8840   42.7000   69.7970 C.ar  462  INH462     -0.0167
     13  C13       79.0180   41.8470   70.5110 C.ar  462  INH462     -0.0162
     14  O1        77.4200   40.0300   70.6300 O.3   462  INH462     -0.4836
     15  C14       75.3500   40.4150   67.1180 C.3   462  INH462      0.2499
     16  F1        74.2950   40.0060   66.2830 F     462  INH462     -0.2056
     17  F2        75.2520   41.8020   67.3130 F     462  INH462     -0.2056
     18  C15       76.7040   40.1040   66.4950 C.3   462  INH462      0.0181
     19  C16       79.2840   41.5630   67.7070 C.ar  462  INH462     -0.0133
     20  C17       76.1450   37.9260   71.0440 C.ar  462  INH462     -0.0068
     21  O2        73.6130   35.8070   73.7130 O.3   462  INH462     -0.5068
     22  C18       76.0110   38.3250   72.4150 C.ar  462  INH462     -0.0516
     23  O3        80.8680   43.4340   67.7210 O.3   462  INH462     -0.5068
     24  H1        78.0570   38.1580   70.0290 H     462  INH462      0.0787
     25  H2        76.4510   37.8050   68.2260 H     462  INH462      0.0348
     26  H3        75.1790   40.3690   69.2960 H     462  INH462      0.0327
     27  H4        74.4020   38.9790   68.4650 H     462  INH462      0.0327
     28  H5        78.3070   38.8930   67.2760 H     462  INH462      0.0356
     29  H6        75.4730   36.4640   69.5690 H     462  INH462      0.0623
     30  H7        73.9840   35.2170   71.1480 H     462  INH462      0.0654
     31  H8        75.0780   37.9350   74.3350 H     462  INH462      0.0654
     32  H9        80.4450   43.4630   70.3240 H     462  INH462      0.0655
     33  H10       78.9250   41.9610   71.5850 H     462  INH462      0.0655
     34  H11       76.6080   39.3230   65.7260 H     462  INH462      0.0329
     35  H12       77.1420   41.0080   66.0470 H     462  INH462      0.0329
     36  H13       79.3950   41.4530   66.6340 H     462  INH462      0.0658
     37  H14       73.6540   36.2120   74.5710 H     462  INH462      0.2921
     38  H15       76.5650   39.1830   72.7770 H     462  INH462      0.0623
     39  H16       80.8600   43.2240   66.7950 H     462  INH462      0.2921
@<TRIPOS>BOND
     1     1    13   ar
     2     1    14    1
     3     1     6   ar
     4     2     3    1
     5     2    24    1
     6     2    20    1
     7     2    14    1
     8     3     5    1
     9     3    25    1
    10     3     4    1
    11     4    27    1
    12     4    26    1
    13     4    15    1
    14     5     6    1
    15     5    28    1
    16     5    18    1
    17     6    19   ar
    18     7    20   ar
    19     7    29    1
    20     7     8   ar
    21     8    30    1
    22     8     9   ar
    23     9    21    1
    24     9    10   ar
    25    10    31    1
    26    10    22   ar
    27    11    23    1
    28    11    19   ar
    29    11    12   ar
    30    12    32    1
    31    12    13   ar
    32    13    33    1
    33    15    18    1
    34    15    17    1
    35    15    16    1
    36    18    35    1
    37    18    34    1
    38    19    36    1
    39    20    22   ar
    40    21    37    1
    41    22    38    1
    42    23    39    1
