@<TRIPOS>MOLECULE
/tmp/ewbell/vina_2z4b_2z4b_lig/vina/vina2.pdbqt
 25 28 0 0 0
SMALL
GASTEIGER

@<TRIPOS>ATOM
      1  C1        77.5990   39.9060   68.8250 C.ar  462  INH462      0.0760
      2  C2        76.3960   39.1900   70.7900 C.3   462  INH462      0.1660
      3  C3        77.6600   39.4180   71.6660 C.3   462  INH462      0.0340
      4  C4        78.6400   38.1870   71.6870 C.3   462  INH462      0.0870
      5  C5        78.5710   40.5530   71.1290 C.3   462  INH462      0.0340
      6  C6        78.5000   40.7050   69.5860 C.ar  462  INH462     -0.0170
      7  C11       79.2810   41.7990   67.4900 C.ar  462  INH462      0.0660
      8  C12       78.3880   40.9940   66.7480 C.ar  462  INH462      0.0390
      9  C13       77.5570   40.0640   67.4040 C.ar  462  INH462      0.0400
     10  O1        76.7380   38.9550   69.3960 O.3   462  INH462     -0.3400
     11  C14       80.0790   38.7530   71.7550 C.3   462  INH462      0.2440
     12  F1        80.7040   38.3100   72.9340 F     462  INH462     -0.2060
     13  F2        80.8440   38.3270   70.6580 F     462  INH462     -0.2060
     14  C15       79.9770   40.2720   71.7190 C.3   462  INH462      0.0890
     15  C16       79.3420   41.6660   68.9070 C.ar  462  INH462      0.0460
     16  C17       75.4380   38.0380   71.3180 C.ar  462  INH462     -0.0280
     17  C7        74.9700   36.9890   70.4590 C.ar  462  INH462      0.0120
     18  C8        74.1260   35.9540   70.9600 C.ar  462  INH462      0.0370
     19  C9        73.7400   35.9520   72.3210 C.ar  462  INH462      0.0650
     20  C10       74.1890   36.9830   73.1850 C.ar  462  INH462      0.0370
     21  C18       75.0270   38.0120   72.6920 C.ar  462  INH462      0.0120
     22  O2        72.9230   34.9570   72.8040 O.3   462  INH462     -0.3610
     23  H14       72.5530   35.2300   73.6350 H     462  INH462      0.2170
     24  O3        80.1020   42.6900   66.8130 O.3   462  INH462     -0.3610
     25  H16       80.2260   42.3890   65.9210 H     462  INH462      0.2170
@<TRIPOS>BOND
     1    25    24    1
     2     8     9   ar
     3     8     7   ar
     4    24     7    1
     5     9     1   ar
     6     7    15   ar
     7     1    10    1
     8     1     6   ar
     9    15     6   ar
    10    10     2    1
    11     6     5    1
    12    17    18   ar
    13    17    16   ar
    14    13    11    1
    15     2    16    1
    16     2     3    1
    17    18    19   ar
    18     5     3    1
    19     5    14    1
    20    16    21   ar
    21     3     4    1
    22     4    11    1
    23    14    11    1
    24    11    12    1
    25    19    22    1
    26    19    20   ar
    27    21    20   ar
    28    22    23    1
