@<TRIPOS>MOLECULE
/tmp/ewbell/vina_2z4b_2z4b_lig/vina/vina1.pdbqt
 25 28 0 0 0
SMALL
GASTEIGER

@<TRIPOS>ATOM
      1  C1        78.0160   40.5180   69.7120 C.ar  462  INH462      0.0760
      2  C2        76.7840   38.4450   69.7800 C.3   462  INH462      0.1660
      3  C3        76.2560   38.6930   68.3390 C.3   462  INH462      0.0340
      4  C4        74.9600   39.5850   68.2900 C.3   462  INH462      0.0870
      5  C5        77.2450   39.5060   67.4640 C.3   462  INH462      0.0340
      6  C6        78.1150   40.4910   68.2910 C.ar  462  INH462     -0.0170
      7  C11       79.8320   42.2920   68.3880 C.ar  462  INH462      0.0660
      8  C12       79.7170   42.3130   69.7960 C.ar  462  INH462      0.0390
      9  C13       78.8250   41.4390   70.4500 C.ar  462  INH462      0.0400
     10  O1        77.1530   39.6850   70.4430 O.3   462  INH462     -0.3400
     11  C14       75.0530   40.4530   67.0120 C.3   462  INH462      0.2440
     12  F1        73.9710   40.1600   66.1640 F     462  INH462     -0.2060
     13  F2        75.0170   41.8210   67.3250 F     462  INH462     -0.2060
     14  C15       76.3840   40.1410   66.3420 C.3   462  INH462      0.0890
     15  C16       79.0400   41.3840   67.6280 C.ar  462  INH462      0.0460
     16  C17       75.7950   37.6080   70.6990 C.ar  462  INH462     -0.0280
     17  C7        74.8890   36.6400   70.1540 C.ar  462  INH462      0.0120
     18  C8        74.0240   35.8870   71.0020 C.ar  462  INH462      0.0370
     19  C9        74.0520   36.0890   72.4010 C.ar  462  INH462      0.0650
     20  C10       74.9390   37.0450   72.9590 C.ar  462  INH462      0.0370
     21  C18       75.8000   37.7940   72.1220 C.ar  462  INH462      0.0120
     22  O2        73.2160   35.3670   73.2190 O.3   462  INH462     -0.3610
     23  H14       73.7360   34.8120   73.7890 H     462  INH462      0.2170
     24  O3        80.7020   43.1800   67.7730 O.3   462  INH462     -0.3610
     25  H16       81.5090   42.7300   67.5540 H     462  INH462      0.2170
@<TRIPOS>BOND
     1    12    11    1
     2    14    11    1
     3    14     5    1
     4    11    13    1
     5    11     4    1
     6     5     6    1
     7     5     3    1
     8    25    24    1
     9    15     6   ar
    10    15     7   ar
    11    24     7    1
    12     4     3    1
    13     6     1   ar
    14     3     2    1
    15     7     8   ar
    16     1    10    1
    17     1     9   ar
    18     2    10    1
    19     2    16    1
    20     8     9   ar
    21    17    16   ar
    22    17    18   ar
    23    16    21   ar
    24    18    19   ar
    25    21    20   ar
    26    19    20   ar
    27    19    22    1
    28    22    23    1
