@<TRIPOS>MOLECULE
/tmp/ewbell/vina_2z4b_2z4b_lig/vina/vina4.pdbqt
 25 28 0 0 0
SMALL
GASTEIGER

@<TRIPOS>ATOM
      1  C1        68.8320   32.3320   78.4870 C.ar  462  INH462      0.0760
      2  C2        68.4790   30.0370   79.1430 C.3   462  INH462      0.1660
      3  C3        69.8920   29.6540   78.6220 C.3   462  INH462      0.0340
      4  C4        69.9250   29.3200   77.0830 C.3   462  INH462      0.0870
      5  C5        70.9110   30.8180   78.7250 C.3   462  INH462      0.0340
      6  C6        70.2480   32.2160   78.5960 C.ar  462  INH462     -0.0170
      7  C11       70.4490   34.6940   78.4690 C.ar  462  INH462      0.0660
      8  C12       69.0450   34.7930   78.3530 C.ar  462  INH462      0.0390
      9  C13       68.2470   33.6310   78.3640 C.ar  462  INH462      0.0400
     10  O1        67.9640   31.2280   78.4870 O.3   462  INH462     -0.3400
     11  C14       71.2810   29.8270   76.5370 C.3   462  INH462      0.2440
     12  F1        72.0140   28.7450   76.0180 F     462  INH462     -0.2060
     13  F2        71.0940   30.7710   75.5150 F     462  INH462     -0.2060
     14  C15       72.0190   30.4950   77.6890 C.3   462  INH462      0.0890
     15  C16       71.0600   33.4130   78.5950 C.ar  462  INH462      0.0460
     16  C17       67.4130   28.8630   79.0570 C.ar  462  INH462     -0.0280
     17  C7        67.3610   27.8120   80.0310 C.ar  462  INH462      0.0120
     18  C8        66.3830   26.7790   79.9430 C.ar  462  INH462      0.0370
     19  C9        65.4450   26.7800   78.8850 C.ar  462  INH462      0.0650
     20  C10       65.4820   27.8080   77.9080 C.ar  462  INH462      0.0370
     21  C18       66.4520   28.8370   77.9920 C.ar  462  INH462      0.0120
     22  O2        64.5030   25.7820   78.7970 O.3   462  INH462     -0.3610
     23  H14       63.7290   26.1180   78.3620 H     462  INH462      0.2170
     24  O3        71.2090   35.8550   78.4320 O.3   462  INH462     -0.3610
     25  H16       72.1040   35.6390   78.2000 H     462  INH462      0.2170
@<TRIPOS>BOND
     1    13    11    1
     2    12    11    1
     3    11     4    1
     4    11    14    1
     5     4     3    1
     6    14     5    1
     7    20    21   ar
     8    20    19   ar
     9    21    16   ar
    10    25    24    1
    11     8     9   ar
    12     8     7   ar
    13    23    22    1
    14     9     1   ar
    15    24     7    1
    16     7    15   ar
    17     1    10    1
    18     1     6   ar
    19    10     2    1
    20    15     6   ar
    21     6     5    1
    22     3     5    1
    23     3     2    1
    24    22    19    1
    25    19    18   ar
    26    16     2    1
    27    16    17   ar
    28    18    17   ar
