@<TRIPOS>MOLECULE
/tmp/ewbell/vina_2z4b_2z4b_lig/vina/vina3.pdbqt
 25 28 0 0 0
SMALL
GASTEIGER

@<TRIPOS>ATOM
      1  C1        68.2370   30.4690   76.9580 C.ar  462  INH462      0.0760
      2  C2        70.5120   30.2950   77.7430 C.3   462  INH462      0.1660
      3  C3        70.2750   31.4690   78.7360 C.3   462  INH462      0.0340
      4  C4        70.4930   32.8890   78.0920 C.3   462  INH462      0.0870
      5  C5        68.8080   31.5560   79.2300 C.3   462  INH462      0.0340
      6  C6        67.7850   31.0350   78.1850 C.ar  462  INH462     -0.0170
      7  C11       65.4280   30.6420   77.4850 C.ar  462  INH462      0.0660
      8  C12       65.8910   30.0900   76.2700 C.ar  462  INH462      0.0390
      9  C13       67.2730   30.0020   76.0090 C.ar  462  INH462      0.0400
     10  O1        69.5930   30.3460   76.6160 O.3   462  INH462     -0.3400
     11  C14       69.4630   33.8440   78.7400 C.3   462  INH462      0.2440
     12  F1        70.1370   34.8790   79.4130 F     462  INH462     -0.2060
     13  F2        68.6230   34.4160   77.7710 F     462  INH462     -0.2060
     14  C15       68.6130   33.0210   79.6990 C.3   462  INH462      0.0890
     15  C16       66.3650   31.1120   78.4500 C.ar  462  INH462      0.0460
     16  C17       72.0070   30.1750   77.2220 C.ar  462  INH462     -0.0280
     17  C7        73.0680   30.9690   77.7720 C.ar  462  INH462      0.0120
     18  C8        74.4060   30.8300   77.3020 C.ar  462  INH462      0.0370
     19  C9        74.7050   29.8990   76.2790 C.ar  462  INH462      0.0650
     20  C10       73.6690   29.1080   75.7200 C.ar  462  INH462      0.0370
     21  C18       72.3380   29.2430   76.1840 C.ar  462  INH462      0.0120
     22  O2        75.9950   29.7670   75.8220 O.3   462  INH462     -0.3610
     23  H14       76.6000   29.9740   76.5240 H     462  INH462      0.2170
     24  O3        64.0610   30.7340   77.7030 O.3   462  INH462     -0.3610
     25  H16       63.8750   31.5140   78.2110 H     462  INH462      0.2170
@<TRIPOS>BOND
     1    20    21   ar
     2    20    19   ar
     3    22    19    1
     4    22    23    1
     5     9     8   ar
     6     9     1   ar
     7    21    16   ar
     8     8     7   ar
     9    19    18   ar
    10    10     1    1
    11    10     2    1
    12     1     6   ar
    13    16     2    1
    14    16    17   ar
    15    18    17   ar
    16     7    24    1
    17     7    15   ar
    18    24    25    1
    19     2     3    1
    20    13    11    1
    21     4     3    1
    22     4    11    1
    23     6    15   ar
    24     6     5    1
    25     3     5    1
    26    11    12    1
    27    11    14    1
    28     5    14    1
