@<TRIPOS>MOLECULE
/tmp/ewbell/vina_2z4b_2z4b_lig/vina/vina5.pdbqt
 25 28 0 0 0
SMALL
GASTEIGER

@<TRIPOS>ATOM
      1  C1        86.3390   43.6760   71.8710 C.ar  462  INH462      0.0760
      2  C2        85.4240   45.8450   71.3440 C.3   462  INH462      0.1660
      3  C3        86.7870   46.5170   71.6750 C.3   462  INH462      0.0340
      4  C4        86.9690   46.8470   73.2040 C.3   462  INH462      0.0870
      5  C5        88.0000   45.5940   71.3930 C.3   462  INH462      0.0340
      6  C6        87.6680   44.0880   71.5690 C.ar  462  INH462     -0.0170
      7  C11       88.3980   41.7070   71.5880 C.ar  462  INH462      0.0660
      8  C12       87.0770   41.3140   71.8950 C.ar  462  INH462      0.0390
      9  C13       86.0600   42.2810   72.0330 C.ar  462  INH462      0.0400
     10  O1        85.2690   44.5710   72.0280 O.3   462  INH462     -0.3400
     11  C14       88.4650   46.6370   73.5380 C.3   462  INH462      0.2440
     12  F1        89.0230   47.8480   73.9850 F     462  INH462     -0.2060
     13  F2        88.6280   45.6730   74.5460 F     462  INH462     -0.2060
     14  C15       89.1530   46.1410   72.2740 C.3   462  INH462      0.0890
     15  C16       88.7040   43.0880   71.4190 C.ar  462  INH462      0.0460
     16  C17       84.1610   46.7680   71.6160 C.ar  462  INH462     -0.0280
     17  C7        83.0120   46.2900   72.3290 C.ar  462  INH462      0.0120
     18  C8        81.8970   47.1430   72.5790 C.ar  462  INH462      0.0370
     19  C9        81.9130   48.4810   72.1210 C.ar  462  INH462      0.0650
     20  C10       83.0380   48.9720   71.4100 C.ar  462  INH462      0.0370
     21  C18       84.1480   48.1280   71.1610 C.ar  462  INH462      0.0120
     22  O2        80.8370   49.3040   72.3570 O.3   462  INH462     -0.3610
     23  H14       80.3690   48.9970   73.1250 H     462  INH462      0.2170
     24  O3        89.3810   40.7330   71.4810 O.3   462  INH462     -0.3610
     25  H16       88.9820   39.8740   71.5500 H     462  INH462      0.2170
@<TRIPOS>BOND
     1    21    20   ar
     2    21    16   ar
     3     2    16    1
     4     2     3    1
     5     2    10    1
     6     5     6    1
     7     5     3    1
     8     5    14    1
     9    20    19   ar
    10    15     6   ar
    11    15     7   ar
    12    24    25    1
    13    24     7    1
    14     6     1   ar
    15     7     8   ar
    16    16    17   ar
    17     3     4    1
    18     1    10    1
    19     1     9   ar
    20     8     9   ar
    21    19    22    1
    22    19    18   ar
    23    14    11    1
    24    17    18   ar
    25    22    23    1
    26     4    11    1
    27    11    12    1
    28    11    13    1
