@<TRIPOS>MOLECULE
./ligand/3bex_lig.pdb
 31 30 0 0 0
SMALL
GASTEIGER

@<TRIPOS>ATOM
      1  O1         3.7490   13.6700   18.2660 O.3   501  INH501     -0.3944
      2  C1         4.5470   12.5230   16.2990 C.3   501  INH501      0.0227
      3  C2         4.3430   13.8310   17.0230 C.3   501  INH501      0.0521
      4  C3         5.3890   11.6250   17.1540 C.3   501  INH501     -0.0549
      5  C4         5.2270   12.7970   14.9760 C.3   501  INH501     -0.0549
      6  C5         3.1870   11.9050   16.0200 C.3   501  INH501      0.1380
      7  O2         2.4120   12.7940   15.2560 O.3   501  INH501     -0.3820
      8  C6         3.1500   10.5570   15.3360 C.2   501  INH501      0.2423
      9  O3         3.3850    9.5210   16.0300 O.2   501  INH501     -0.2730
     10  N1         2.8950   10.4820   14.1180 N.am  501  INH501     -0.3126
     11  C7         2.7530    9.2730   13.3530 C.3   501  INH501      0.0219
     12  C8         3.4880    9.4070   12.0210 C.3   501  INH501      0.0647
     13  C9         3.0250   10.5080   11.1050 C.2   501  INH501      0.3575
     14  O4         2.3810   11.4360   11.5100 O.co2 501  INH501     -0.2463
     15  O5         3.3820   10.4150    9.9400 O.co2 501  INH501     -0.2463
     16  H1         3.6430   14.5190   18.6790 H     501  INH501      0.2094
     17  H2         3.7000   14.4770   16.4070 H     501  INH501      0.0563
     18  H3         5.3220   14.3130   17.1610 H     501  INH501      0.0563
     19  H4         5.5450   10.6670   16.6370 H     501  INH501      0.0237
     20  H5         4.8780   11.4460   18.1110 H     501  INH501      0.0237
     21  H6         6.3620   12.1030   17.3410 H     501  INH501      0.0237
     22  H7         5.3810   11.8490   14.4390 H     501  INH501      0.0237
     23  H8         6.2000   13.2780   15.1560 H     501  INH501      0.0237
     24  H9         4.5950   13.4630   14.3700 H     501  INH501      0.0237
     25  H10        2.7010   11.7760   16.9980 H     501  INH501      0.0696
     26  H11        1.5630   12.4050   15.0830 H     501  INH501      0.2105
     27  H12        2.7780   11.3450   13.6260 H     501  INH501      0.1488
     28  H13        3.1780    8.4320   13.9200 H     501  INH501      0.0467
     29  H14        1.6860    9.0860   13.1630 H     501  INH501      0.0467
     30  H15        4.5510    9.5820   12.2420 H     501  INH501      0.0394
     31  H16        3.3770    8.4550   11.4810 H     501  INH501      0.0394
@<TRIPOS>BOND
     1     1    16    1
     2     1     3    1
     3     2     3    1
     4     2     6    1
     5     2     5    1
     6     2     4    1
     7     3    18    1
     8     3    17    1
     9     4    21    1
    10     4    20    1
    11     4    19    1
    12     5    24    1
    13     5    23    1
    14     5    22    1
    15     6    25    1
    16     6     8    1
    17     6     7    1
    18     7    26    1
    19     8    10   am
    20     8     9    2
    21    10    27    1
    22    10    11    1
    23    11    29    1
    24    11    28    1
    25    11    12    1
    26    12    31    1
    27    12    30    1
    28    12    13    1
    29    13    15   ar
    30    13    14   ar
