@<TRIPOS>MOLECULE
/tmp/ewbell/vina_3bex_3bex_lig/vina/vina5.pdbqt
 19 18 0 0 0
SMALL
GASTEIGER

@<TRIPOS>ATOM
      1  C6         1.9330   17.1170   22.4420 C.2   501  INH501      0.2470
      2  O3         1.5050   15.9480   22.6860 O.2   501  INH501     -0.2710
      3  N1         1.2080   17.9800   21.9100 N.am  501  INH501     -0.3580
      4  H12        0.2680   17.7110   21.6940 H     501  INH501      0.1620
      5  C5         3.3610   17.4510   22.8090 C.3   501  INH501      0.2190
      6  C1         3.6880   17.6490   24.2800 C.3   501  INH501      0.0080
      7  C4         2.3930   17.8660   25.0320 C.3   501  INH501      0.0200
      8  C3         4.6190   18.8060   24.4800 C.3   501  INH501      0.0200
      9  C2         4.3510   16.3970   24.8000 C.3   501  INH501      0.1750
     10  O1         3.4630   15.3430   24.9510 O.3   501  INH501     -0.4000
     11  H1         3.2550   15.2330   25.8720 H     501  INH501      0.2090
     12  O2         4.1870   16.4490   22.2730 O.3   501  INH501     -0.3850
     13  H11        4.1430   15.6750   22.8230 H     501  INH501      0.2100
     14  C7         1.5920   19.3240   21.5760 C.3   501  INH501      0.1330
     15  C8         0.7320   20.3210   22.3490 C.3   501  INH501      0.1290
     16  C9         0.3490   21.5840   21.6230 C.2   501  INH501      0.1400
     17  O5         0.3030   21.5030   20.4050 O.2   501  INH501     -0.6500
     18  O4         0.1430   22.6100   22.2100 O.3   501  INH501     -0.7760
     19  H          0.3930   23.4280   21.8260 H     501  INH501      0.1670
@<TRIPOS>BOND
     1    17    16    2
     2    14     3    1
     3    14    15    1
     4    16    18    1
     5    16    15    1
     6     4     3    1
     7    19    18    1
     8     3     1   am
     9    12     5    1
    10    12    13    1
    11     1     2    2
    12     1     5    1
    13     5     6    1
    14     6     8    1
    15     6     9    1
    16     6     7    1
    17     9    10    1
    18    10    11    1
