@<TRIPOS>MOLECULE
/tmp/ewbell/vina_3bex_3bex_lig/vina/vina3.pdbqt
 19 18 0 0 0
SMALL
GASTEIGER

@<TRIPOS>ATOM
      1  C6         1.1940   18.2430   20.8190 C.2   501  INH501      0.2470
      2  O3         0.6640   17.5630   19.8870 O.2   501  INH501     -0.2710
      3  N1         0.5510   19.1130   21.4380 N.am  501  INH501     -0.3580
      4  H12       -0.4060   19.2430   21.1740 H     501  INH501      0.1620
      5  C5         2.6410   17.9780   21.1690 C.3   501  INH501      0.2190
      6  C1         2.9620   16.7180   21.9550 C.3   501  INH501      0.0080
      7  C4         3.5530   15.7000   21.0030 C.3   501  INH501      0.0200
      8  C3         1.7410   16.1690   22.6290 C.3   501  INH501      0.0200
      9  C2         3.9890   17.0540   23.0080 C.3   501  INH501      0.1750
     10  O1         4.9720   16.0830   23.1290 O.3   501  INH501     -0.4000
     11  H1         4.7570   15.3440   22.5710 H     501  INH501      0.2090
     12  O2         3.3800   17.9920   19.9750 O.3   501  INH501     -0.3850
     13  H11        4.2890   18.1860   20.1680 H     501  INH501      0.2100
     14  C7         1.0520   19.9480   22.4950 C.3   501  INH501      0.1330
     15  C8         0.2040   21.2120   22.6110 C.3   501  INH501      0.1290
     16  C9        -0.3440   21.7750   21.3260 C.2   501  INH501      0.1400
     17  O5         0.3920   21.6940   20.3540 O.2   501  INH501     -0.6500
     18  O4        -1.4200   22.3040   21.2780 O.3   501  INH501     -0.7760
     19  H         -1.5000   23.1740   20.9380 H     501  INH501      0.1670
@<TRIPOS>BOND
     1     2     1    2
     2    12    13    1
     3    12     5    1
     4    17    16    2
     5     1     5    1
     6     1     3   am
     7    19    18    1
     8     7     6    1
     9     5     6    1
    10     4     3    1
    11    18    16    1
    12    16    15    1
    13     3    14    1
    14     6     8    1
    15     6     9    1
    16    14    15    1
    17    11    10    1
    18     9    10    1
