@<TRIPOS>MOLECULE
/tmp/ewbell/vina_3bex_3bex_lig/vina/vina4.pdbqt
 19 18 0 0 0
SMALL
GASTEIGER

@<TRIPOS>ATOM
      1  C6         4.2300   15.7420   24.2700 C.2   501  INH501      0.2470
      2  O3         4.2370   14.5000   24.5300 O.2   501  INH501     -0.2710
      3  N1         5.1580   16.4900   24.6340 N.am  501  INH501     -0.3580
      4  H12        5.9150   16.0640   25.1320 H     501  INH501      0.1620
      5  C5         3.0580   16.3080   23.5010 C.3   501  INH501      0.2190
      6  C1         3.0160   16.0800   21.9990 C.3   501  INH501      0.0080
      7  C4         4.1890   15.2040   21.6170 C.3   501  INH501      0.0200
      8  C3         3.0550   17.3780   21.2500 C.3   501  INH501      0.0200
      9  C2         1.7350   15.3600   21.6560 C.3   501  INH501      0.1750
     10  O1         0.7970   16.1880   21.0580 O.3   501  INH501     -0.4000
     11  H1         0.9520   17.0870   21.3260 H     501  INH501      0.2090
     12  O2         1.8810   15.8120   24.0870 O.3   501  INH501     -0.3850
     13  H11        1.9990   15.7480   25.0280 H     501  INH501      0.2100
     14  C7         5.2450   17.9070   24.4070 C.3   501  INH501      0.1330
     15  C8         6.6460   18.4070   24.7530 C.3   501  INH501      0.1290
     16  C9         7.5800   17.4090   25.3850 C.2   501  INH501      0.1400
     17  O5         7.6490   17.4440   26.6040 O.2   501  INH501     -0.6500
     18  O4         8.2420   16.6590   24.7220 O.3   501  INH501     -0.7760
     19  H          8.2270   16.7210   23.7870 H     501  INH501      0.1670
@<TRIPOS>BOND
     1    10    11    1
     2    10     9    1
     3     8     6    1
     4     7     6    1
     5     9     6    1
     6     6     5    1
     7     5    12    1
     8     5     1    1
     9    19    18    1
    10    12    13    1
    11     1     2    2
    12     1     3   am
    13    14     3    1
    14    14    15    1
    15     3     4    1
    16    18    16    1
    17    15    16    1
    18    16    17    2
