@<TRIPOS>MOLECULE
/tmp/ewbell/vina_3bex_3bex_lig/vina/vina1.pdbqt
 19 18 0 0 0
SMALL
GASTEIGER

@<TRIPOS>ATOM
      1  C6         2.0000   16.2200   22.0100 C.2   501  INH501      0.2470
      2  O3         1.1420   17.0850   21.6560 O.2   501  INH501     -0.2710
      3  N1         2.6670   15.5820   21.1720 N.am  501  INH501     -0.3580
      4  H12        2.5020   15.7910   20.2070 H     501  INH501      0.1620
      5  C5         2.2020   15.9690   23.4870 C.3   501  INH501      0.2190
      6  C1         2.9790   17.0040   24.2840 C.3   501  INH501      0.0080
      7  C4         2.0200   17.6990   25.2260 C.3   501  INH501      0.0200
      8  C3         3.6500   17.9940   23.3820 C.3   501  INH501      0.0200
      9  C2         4.0340   16.2940   25.0970 C.3   501  INH501      0.1750
     10  O1         3.9520   14.9140   24.9950 O.3   501  INH501     -0.4000
     11  H1         4.7910   14.5670   24.7140 H     501  INH501      0.2090
     12  O2         0.9350   15.7800   24.0660 O.3   501  INH501     -0.3850
     13  H11        1.0330   15.3510   24.9080 H     501  INH501      0.2100
     14  C7         3.6500   14.5730   21.4580 C.3   501  INH501      0.1330
     15  C8         4.0420   13.8450   20.1750 C.3   501  INH501      0.1290
     16  C9         5.2540   14.3660   19.4490 C.2   501  INH501      0.1400
     17  O5         5.9800   13.5190   18.9500 O.2   501  INH501     -0.6500
     18  O4         5.5050   15.5380   19.4040 O.3   501  INH501     -0.7760
     19  H          6.1980   15.8490   18.8540 H     501  INH501      0.1670
@<TRIPOS>BOND
     1    19    18    1
     2    17    16    2
     3    18    16    1
     4    16    15    1
     5    15    14    1
     6     4     3    1
     7     3    14    1
     8     3     1   am
     9     2     1    2
    10     1     5    1
    11     8     6    1
    12     5    12    1
    13     5     6    1
    14    12    13    1
    15     6     9    1
    16     6     7    1
    17    11    10    1
    18    10     9    1
