@<TRIPOS>MOLECULE
/tmp/ewbell/vina_3bex_3bex_lig/vina/vina2.pdbqt
 19 18 0 0 0
SMALL
GASTEIGER

@<TRIPOS>ATOM
      1  C6         1.8750   17.3740   20.7770 C.2   501  INH501      0.2470
      2  O3         0.7680   17.9640   20.5860 O.2   501  INH501     -0.2710
      3  N1         2.6500   17.1190   19.8340 N.am  501  INH501     -0.3580
      4  H12        2.3630   17.4090   18.9210 H     501  INH501      0.1620
      5  C5         2.2450   16.9790   22.1890 C.3   501  INH501      0.2190
      6  C1         2.6880   18.0770   23.1410 C.3   501  INH501      0.0080
      7  C4         3.0600   19.2950   22.3250 C.3   501  INH501      0.0200
      8  C3         3.8420   17.6310   23.9880 C.3   501  INH501      0.0200
      9  C2         1.5310   18.4290   24.0440 C.3   501  INH501      0.1750
     10  O1         0.5540   19.1720   23.3990 O.3   501  INH501     -0.4000
     11  H1         0.4260   19.9940   23.8590 H     501  INH501      0.2090
     12  O2         1.1520   16.2880   22.7400 O.3   501  INH501     -0.3850
     13  H11        0.4130   16.8800   22.8220 H     501  INH501      0.2100
     14  C7         3.9160   16.4460   19.9340 C.3   501  INH501      0.1330
     15  C8         4.4090   16.0500   18.5440 C.3   501  INH501      0.1290
     16  C9         4.1560   17.0350   17.4340 C.2   501  INH501      0.1400
     17  O5         3.0060   17.0890   17.0240 O.2   501  INH501     -0.6500
     18  O4         5.0410   17.6920   16.9600 O.3   501  INH501     -0.7760
     19  H          4.9650   18.6250   16.9230 H     501  INH501      0.1670
@<TRIPOS>BOND
     1    19    18    1
     2    18    16    1
     3    17    16    2
     4    16    15    1
     5    15    14    1
     6     4     3    1
     7     3    14    1
     8     3     1   am
     9     2     1    2
    10     1     5    1
    11     5    12    1
    12     5     6    1
    13     7     6    1
    14    12    13    1
    15     6     8    1
    16     6     9    1
    17    10    11    1
    18    10     9    1
