@<TRIPOS>MOLECULE
./ligand/2vuk_lig.pdb
 37 39 0 0 0
SMALL
GASTEIGER

@<TRIPOS>ATOM
      1  C1       125.2080  105.1940  -40.9940 C.ar  200  INH200     -0.0371
      2  C2       125.0670  106.6170  -40.9240 C.ar  200  INH200     -0.0516
      3  C3       124.7230  107.3860  -42.0870 C.ar  200  INH200     -0.0023
      4  C4       124.5170  106.7290  -43.3250 C.ar  200  INH200     -0.0438
      5  C5       124.6530  105.2950  -43.4270 C.ar  200  INH200      0.0080
      6  C6       124.5150  104.3730  -44.5110 C.ar  200  INH200      0.0076
      7  C7       124.1840  104.5310  -45.9020 C.ar  200  INH200     -0.0520
      8  C8       124.1290  103.3890  -46.7440 C.ar  200  INH200     -0.0611
      9  C9       124.4010  102.0950  -46.2260 C.ar  200  INH200     -0.0598
     10  C10      124.7320  101.9150  -44.8550 C.ar  200  INH200     -0.0376
     11  C11      124.7830  103.0700  -44.0110 C.ar  200  INH200      0.0501
     12  N1       125.0730  103.2080  -42.6510 N.ar  200  INH200     -0.3400
     13  C12      125.0000  104.5460  -42.2620 C.ar  200  INH200      0.0501
     14  C13      125.4180  102.0860  -41.7660 C.3   200  INH200      0.0210
     15  C14      126.9350  101.9290  -41.6430 C.3   200  INH200     -0.0471
     16  C15      124.6090  108.8950  -41.9140 C.3   200  INH200     -0.0079
     17  N2       123.2310  109.3010  -41.6100 N.4   200  INH200      0.2281
     18  C16      123.1400  110.7510  -41.3370 C.3   200  INH200     -0.0445
     19  H1       125.4650  104.6180  -40.1120 H     200  INH200      0.0638
     20  H2       125.2230  107.1220  -39.9780 H     200  INH200      0.0623
     21  H3       124.2550  107.3080  -44.2030 H     200  INH200      0.0629
     22  H4       123.9780  105.5160  -46.3050 H     200  INH200      0.0624
     23  H5       123.8770  103.5060  -47.7920 H     200  INH200      0.0618
     24  H6       124.3560  101.2340  -46.8840 H     200  INH200      0.0618
     25  H7       124.9400  100.9280  -44.4590 H     200  INH200      0.0638
     26  H8       124.9930  101.1590  -42.1790 H     200  INH200      0.0489
     27  H9       124.9940  102.2720  -40.7680 H     200  INH200      0.0489
     28  H10      127.1630  101.0840  -40.9770 H     200  INH200      0.0247
     29  H11      127.3670  102.8510  -41.2270 H     200  INH200      0.0247
     30  H12      127.3660  101.7390  -42.6370 H     200  INH200      0.0247
     31  H13      125.2650  109.2100  -41.0890 H     200  INH200      0.0866
     32  H14      124.9290  109.3860  -42.8450 H     200  INH200      0.0866
     33  H15      122.6430  109.0790  -42.3980 H     200  INH200      0.2014
     34  H16      122.9120  108.7950  -40.7990 H     200  INH200      0.2014
     35  H17      122.0960  111.0170  -41.1140 H     200  INH200      0.0777
     36  H18      123.4810  111.3120  -42.2190 H     200  INH200      0.0777
     37  H19      123.7750  111.0020  -40.4740 H     200  INH200      0.0777
@<TRIPOS>BOND
     1     1    19    1
     2     1    13   ar
     3     1     2   ar
     4     2    20    1
     5     2     3   ar
     6     3    16    1
     7     3     4   ar
     8     4    21    1
     9     4     5   ar
    10     5    13   ar
    11     5     6   ar
    12     6    11   ar
    13     6     7   ar
    14     7    22    1
    15     7     8   ar
    16     8    23    1
    17     8     9   ar
    18     9    24    1
    19     9    10   ar
    20    10    25    1
    21    10    11   ar
    22    11    12   ar
    23    12    14    1
    24    12    13   ar
    25    14    27    1
    26    14    26    1
    27    14    15    1
    28    15    30    1
    29    15    29    1
    30    15    28    1
    31    16    32    1
    32    16    31    1
    33    16    17    1
    34    17    34    1
    35    17    33    1
    36    17    18    1
    37    18    37    1
    38    18    36    1
    39    18    35    1
