@<TRIPOS>MOLECULE
/tmp/ewbell/vina_2vuk_2vuk_lig/vina/vina5.pdbqt
 20 22 0 0 0
SMALL
GASTEIGER

@<TRIPOS>ATOM
      1  C1       118.5930  100.8500  -38.9960 C.ar  200  INH200      0.0310
      2  C2       118.3730  101.8580  -38.0040 C.ar  200  INH200      0.0110
      3  C3       117.8960  101.5170  -36.6930 C.ar  200  INH200     -0.0320
      4  C4       117.6420  100.1610  -36.3720 C.ar  200  INH200      0.0230
      5  C5       117.8540   99.1220  -37.3520 C.ar  200  INH200      0.0040
      6  C6       117.6860   97.7020  -37.3250 C.ar  200  INH200      0.0030
      7  C7       117.2490   96.7810  -36.3110 C.ar  200  INH200      0.0140
      8  C8       117.1860   95.3930  -36.6030 C.ar  200  INH200      0.0010
      9  C9       117.5480   94.9080  -37.8880 C.ar  200  INH200      0.0020
     10  C10      117.9820   95.8000  -38.9070 C.ar  200  INH200      0.0300
     11  C11      118.0450   97.1980  -38.6040 C.ar  200  INH200      0.0460
     12  N1       118.4240   98.2950  -39.3830 N.ar  200  INH200     -0.3460
     13  C12      118.3230   99.4790  -38.6520 C.ar  200  INH200      0.0460
     14  C15      117.6800  102.6620  -35.7120 C.3   200  INH200      0.2700
     15  N2       118.9370  103.3590  -35.4110 N.4   200  INH200     -0.0750
     16  H16      119.1570  103.9810  -36.1740 H     200  INH200      0.2770
     17  H15      119.6730  102.6790  -35.3090 H     200  INH200      0.2770
     18  C16      118.8360  104.1470  -34.1650 C.3   200  INH200      0.2670
     19  C13      118.8580   98.1980  -40.7840 C.3   200  INH200      0.1250
     20  C14      117.6770   98.3830  -41.7390 C.3   200  INH200      0.0270
@<TRIPOS>BOND
     1    20    19    1
     2    19    12    1
     3    12    13   ar
     4    12    11   ar
     5     1    13   ar
     6     1     2   ar
     7    10    11   ar
     8    10     9   ar
     9    13     5   ar
    10    11     6   ar
    11     2     3   ar
    12     9     8   ar
    13     5     6   ar
    14     5     4   ar
    15     6     7   ar
    16     3     4   ar
    17     3    14    1
    18     8     7   ar
    19    16    15    1
    20    14    15    1
    21    15    17    1
    22    15    18    1
