@<TRIPOS>MOLECULE
/tmp/ewbell/vina_2vuk_2vuk_lig/vina/vina1.pdbqt
 20 22 0 0 0
SMALL
GASTEIGER

@<TRIPOS>ATOM
      1  C1       125.2360  105.4810  -40.9710 C.ar  200  INH200      0.0310
      2  C2       125.0780  106.9040  -40.9600 C.ar  200  INH200      0.0110
      3  C3       124.7300  107.6200  -42.1550 C.ar  200  INH200     -0.0320
      4  C4       124.5360  106.9100  -43.3650 C.ar  200  INH200      0.0230
      5  C5       124.6880  105.4750  -43.4070 C.ar  200  INH200      0.0040
      6  C6       124.5650  104.5070  -44.4530 C.ar  200  INH200      0.0030
      7  C7       124.2370  104.6040  -45.8500 C.ar  200  INH200      0.0140
      8  C8       124.1980  103.4280  -46.6450 C.ar  200  INH200      0.0010
      9  C9       124.4830  102.1600  -46.0730 C.ar  200  INH200      0.0020
     10  C10      124.8110  102.0400  -44.6950 C.ar  200  INH200      0.0300
     11  C11      124.8460  103.2290  -43.8990 C.ar  200  INH200      0.0460
     12  N1       125.1290  103.4270  -42.5450 N.ar  200  INH200     -0.3460
     13  C12      125.0400  104.7790  -42.2110 C.ar  200  INH200      0.0460
     14  C15      124.5980  109.1330  -42.0440 C.3   200  INH200      0.2700
     15  N2       125.6730  109.7110  -41.2280 N.4   200  INH200     -0.0750
     16  H16      126.2940  110.2320  -41.8260 H     200  INH200      0.2770
     17  H15      126.1820  108.9640  -40.7820 H     200  INH200      0.2770
     18  C16      125.1390  110.6150  -40.1880 C.3   200  INH200      0.2670
     19  C13      125.4840  102.3460  -41.6130 C.3   200  INH200      0.1250
     20  C14      127.0010  102.2450  -41.4400 C.3   200  INH200      0.0270
@<TRIPOS>BOND
     1     8     9   ar
     2     8     7   ar
     3     9    10   ar
     4     7     6   ar
     5    10    11   ar
     6     6    11   ar
     7     6     5   ar
     8    11    12   ar
     9     5     4   ar
    10     5    13   ar
    11     4     3   ar
    12    12    13   ar
    13    12    19    1
    14    13     1   ar
    15     3    14    1
    16     3     2   ar
    17    14    15    1
    18    16    15    1
    19    19    20    1
    20    15    17    1
    21    15    18    1
    22     1     2   ar
