@<TRIPOS>MOLECULE
/tmp/ewbell/vina_2vuk_2vuk_lig/vina/vina4.pdbqt
 20 22 0 0 0
SMALL
GASTEIGER

@<TRIPOS>ATOM
      1  C1       128.6600  107.3210  -28.4220 C.ar  200  INH200      0.0310
      2  C2       129.7630  106.4410  -28.1800 C.ar  200  INH200      0.0110
      3  C3       130.7410  106.1800  -29.1980 C.ar  200  INH200     -0.0320
      4  C4       130.6160  106.8030  -30.4640 C.ar  200  INH200      0.0230
      5  C5       129.5140  107.6950  -30.7390 C.ar  200  INH200      0.0040
      6  C6       129.1290  108.4490  -31.8910 C.ar  200  INH200      0.0030
      7  C7       129.6980  108.6030  -33.2030 C.ar  200  INH200      0.0140
      8  C8       129.0580  109.4440  -34.1510 C.ar  200  INH200      0.0010
      9  C9       127.8610  110.1310  -33.8160 C.ar  200  INH200      0.0020
     10  C10      127.2790  109.9920  -32.5270 C.ar  200  INH200      0.0300
     11  C11      127.9300  109.1440  -31.5750 C.ar  200  INH200      0.0460
     12  N1       127.6060  108.8160  -30.2560 N.ar  200  INH200     -0.3460
     13  C12      128.5480  107.9400  -29.7170 C.ar  200  INH200      0.0460
     14  C15      131.8700  105.2190  -28.8480 C.3   200  INH200      0.2700
     15  N2       132.2520  104.3930  -30.0000 N.4   200  INH200     -0.0750
     16  H16      132.4660  104.9960  -30.7790 H     200  INH200      0.2770
     17  H15      131.4810  103.7910  -30.2410 H     200  INH200      0.2770
     18  C16      133.4350  103.5590  -29.7010 C.3   200  INH200      0.2670
     19  C13      126.4200  109.3240  -29.5500 C.3   200  INH200      0.1250
     20  C14      125.2380  108.3640  -29.6970 C.3   200  INH200      0.0270
@<TRIPOS>BOND
     1     8     9   ar
     2     8     7   ar
     3     9    10   ar
     4     7     6   ar
     5    10    11   ar
     6     6    11   ar
     7     6     5   ar
     8    11    12   ar
     9    16    15    1
    10     5     4   ar
    11     5    13   ar
    12     4     3   ar
    13    12    13   ar
    14    12    19    1
    15    17    15    1
    16    15    18    1
    17    15    14    1
    18    13     1   ar
    19    20    19    1
    20     3    14    1
    21     3     2   ar
    22     1     2   ar
