@<TRIPOS>MOLECULE
/tmp/ewbell/vina_2vuk_2vuk_lig/vina/vina2.pdbqt
 20 22 0 0 0
SMALL
GASTEIGER

@<TRIPOS>ATOM
      1  C1       120.1270   94.1380  -37.4930 C.ar  200  INH200      0.0310
      2  C2       119.3740   93.8290  -36.3150 C.ar  200  INH200      0.0110
      3  C3       118.1750   94.5510  -35.9910 C.ar  200  INH200     -0.0320
      4  C4       117.7270   95.5850  -36.8490 C.ar  200  INH200      0.0230
      5  C5       118.4650   95.9200  -38.0440 C.ar  200  INH200      0.0040
      6  C6       118.2700   96.8900  -39.0760 C.ar  200  INH200      0.0030
      7  C7       117.2620   97.8890  -39.3110 C.ar  200  INH200      0.0140
      8  C8       117.3540   98.7220  -40.4570 C.ar  200  INH200      0.0010
      9  C9       118.4320   98.5800  -41.3700 C.ar  200  INH200      0.0020
     10  C10      119.4410   97.6000  -41.1570 C.ar  200  INH200      0.0300
     11  C11      119.3410   96.7620  -40.0010 C.ar  200  INH200      0.0460
     12  N1       120.1620   95.7310  -39.5340 N.ar  200  INH200     -0.3460
     13  C12      119.6570   95.1950  -38.3490 C.ar  200  INH200      0.0460
     14  C15      117.4510   94.1570  -34.7100 C.3   200  INH200      0.2700
     15  N2       116.4580   93.1020  -34.9530 N.4   200  INH200     -0.0750
     16  H16      116.9280   92.2110  -34.9830 H     200  INH200      0.2770
     17  H15      116.0070   93.2760  -35.8370 H     200  INH200      0.2770
     18  C16      115.4320   93.0680  -33.8900 C.3   200  INH200      0.2670
     19  C13      121.3920   95.2910  -40.2070 C.3   200  INH200      0.1250
     20  C14      122.5460   96.2590  -39.9320 C.3   200  INH200      0.0270
@<TRIPOS>BOND
     1     9    10   ar
     2     9     8   ar
     3    10    11   ar
     4     8     7   ar
     5    19    20    1
     6    19    12    1
     7    11    12   ar
     8    11     6   ar
     9    12    13   ar
    10     7     6   ar
    11     6     5   ar
    12    13     5   ar
    13    13     1   ar
    14     5     4   ar
    15     1     2   ar
    16     4     3   ar
    17     2     3   ar
    18     3    14    1
    19    17    15    1
    20    16    15    1
    21    15    14    1
    22    15    18    1
