@<TRIPOS>MOLECULE
/tmp/ewbell/vina_2vuk_2vuk_lig/vina/vina3.pdbqt
 20 22 0 0 0
SMALL
GASTEIGER

@<TRIPOS>ATOM
      1  C1       124.5200  106.7080  -44.1630 C.ar  200  INH200      0.0310
      2  C2       124.5650  105.4720  -43.4430 C.ar  200  INH200      0.0110
      3  C3       124.8230  105.4460  -42.0300 C.ar  200  INH200     -0.0320
      4  C4       125.0350  106.6620  -41.3350 C.ar  200  INH200      0.0230
      5  C5       124.9960  107.9240  -42.0350 C.ar  200  INH200      0.0040
      6  C6       125.1700  109.2810  -41.6180 C.ar  200  INH200      0.0030
      7  C7       125.4440  109.8920  -40.3450 C.ar  200  INH200      0.0140
      8  C8       125.5670  111.3040  -40.2570 C.ar  200  INH200      0.0010
      9  C9       125.4260  112.1160  -41.4130 C.ar  200  INH200      0.0020
     10  C10      125.1570  111.5330  -42.6820 C.ar  200  INH200      0.0300
     11  C11      125.0310  110.1100  -42.7640 C.ar  200  INH200      0.0460
     12  N1       124.7740  109.2660  -43.8470 N.ar  200  INH200     -0.3460
     13  C12      124.7420  107.9320  -43.4400 C.ar  200  INH200      0.0460
     14  C15      124.8640  104.0810  -41.3560 C.3   200  INH200      0.2700
     15  N2       126.2410  103.6700  -41.0520 N.4   200  INH200     -0.0750
     16  H16      126.3340  103.5470  -40.0560 H     200  INH200      0.2770
     17  H15      126.8730  104.3900  -41.3630 H     200  INH200      0.2770
     18  C16      126.5890  102.4010  -41.7270 C.3   200  INH200      0.2670
     19  C13      124.5770  109.7350  -45.2260 C.3   200  INH200      0.1250
     20  C14      125.8870  109.6860  -46.0170 C.3   200  INH200      0.0270
@<TRIPOS>BOND
     1    20    19    1
     2    19    12    1
     3     1     2   ar
     4     1    13   ar
     5    12    13   ar
     6    12    11   ar
     7     2     3   ar
     8    13     5   ar
     9    11    10   ar
    10    11     6   ar
    11    10     9   ar
    12     5     6   ar
    13     5     4   ar
    14     3    14    1
    15     3     4   ar
    16    18    15    1
    17     6     7   ar
    18     9     8   ar
    19    17    15    1
    20    14    15    1
    21    15    16    1
    22     7     8   ar
