@<TRIPOS>MOLECULE
./ligand/2bvd_lig.pdb
 45 46 0 0 0
SMALL
GASTEIGER

@<TRIPOS>ATOM
      1  O1        15.1490   34.6620   17.1450 O.3   279  INH279     -0.3945
      2  C1        19.2110   34.2660   14.6220 C.3   279  INH279     -0.0042
      3  N1        17.9550   33.9880   13.9340 N.4   279  INH279      0.2292
      4  C2        19.2900   33.6050   16.0020 C.3   279  INH279      0.1275
      5  O2        20.3500   34.2280   16.7430 O.3   279  INH279     -0.3376
      6  C3        18.0160   33.7770   16.8180 C.3   279  INH279      0.0961
      7  O3        18.1490   33.0370   18.0430 O.3   279  INH279     -0.3885
      8  C4        16.8190   33.3150   15.9790 C.3   279  INH279      0.0507
      9  C5        16.7150   34.1390   14.6970 C.3   279  INH279     -0.0261
     10  C6        21.5980   33.5810   16.5500 C.3   279  INH279      0.1886
     11  C7        22.6950   34.5650   16.9460 C.3   279  INH279      0.1341
     12  O4        22.7420   35.6760   16.0370 O.3   279  INH279     -0.3841
     13  C8        24.0590   33.8810   17.0400 C.3   279  INH279      0.1141
     14  O5        25.0090   34.8100   17.5730 O.3   279  INH279     -0.3864
     15  C9        23.9870   32.6220   17.9080 C.3   279  INH279      0.1119
     16  O6        25.2500   31.9450   17.9170 O.3   279  INH279     -0.3865
     17  C10       22.8810   31.7170   17.3480 C.3   279  INH279      0.1130
     18  C11       15.4840   33.3330   16.7320 C.3   279  INH279      0.0543
     19  C12       22.7020   30.4370   18.1490 C.3   279  INH279      0.0730
     20  O7        22.1780   30.7760   19.4390 O.3   279  INH279     -0.3924
     21  O8        21.6580   32.4420   17.4130 O.3   279  INH279     -0.3405
     22  H1        15.8300   34.9970   17.7160 H     279  INH279      0.2094
     23  H2        19.3100   35.3540   14.7470 H     279  INH279      0.0840
     24  H3        20.0410   33.8910   14.0050 H     279  INH279      0.0840
     25  H4        17.9940   33.0350   13.6080 H     279  INH279      0.2014
     26  H5        17.9000   34.6110   13.1440 H     279  INH279      0.2014
     27  H6        19.4960   32.5320   15.8730 H     279  INH279      0.0677
     28  H7        17.8820   34.8410   17.0630 H     279  INH279      0.0626
     29  H8        17.3590   33.1370   18.5610 H     279  INH279      0.2099
     30  H9        17.0120   32.2710   15.6910 H     279  INH279      0.0401
     31  H10       15.8660   33.7810   14.0960 H     279  INH279      0.0818
     32  H11       16.5640   35.1990   14.9500 H     279  INH279      0.0818
     33  H12       21.7170   33.2730   15.5010 H     279  INH279      0.0938
     34  H13       22.4480   34.9570   17.9440 H     279  INH279      0.0671
     35  H14       23.4310   36.2740   16.3030 H     279  INH279      0.2101
     36  H15       24.3780   33.5880   16.0290 H     279  INH279      0.0648
     37  H16       25.8600   34.3920   17.6350 H     279  INH279      0.2100
     38  H17       23.7320   32.9070   18.9400 H     279  INH279      0.0647
     39  H18       25.1880   31.1670   18.4590 H     279  INH279      0.2100
     40  H19       23.1170   31.4610   16.3050 H     279  INH279      0.0647
     41  H20       14.6920   32.9510   16.0710 H     279  INH279      0.0562
     42  H21       15.5630   32.6890   17.6200 H     279  INH279      0.0562
     43  H22       23.6730   29.9330   18.2640 H     279  INH279      0.0584
     44  H23       22.0010   29.7680   17.6280 H     279  INH279      0.0584
     45  H24       22.0610   29.9850   19.9510 H     279  INH279      0.2095
@<TRIPOS>BOND
     1     1    18    1
     2     1    22    1
     3     2    24    1
     4     2    23    1
     5     2     4    1
     6     2     3    1
     7     3    26    1
     8     3    25    1
     9     3     9    1
    10     4     6    1
    11     4    27    1
    12     4     5    1
    13     5    10    1
    14     6     8    1
    15     6    28    1
    16     6     7    1
    17     7    29    1
    18     8     9    1
    19     8    30    1
    20     8    18    1
    21     9    32    1
    22     9    31    1
    23    10    33    1
    24    10    21    1
    25    10    11    1
    26    11    34    1
    27    11    13    1
    28    11    12    1
    29    12    35    1
    30    13    36    1
    31    13    15    1
    32    13    14    1
    33    14    37    1
    34    15    38    1
    35    15    17    1
    36    15    16    1
    37    16    39    1
    38    17    40    1
    39    17    21    1
    40    17    19    1
    41    18    42    1
    42    18    41    1
    43    19    44    1
    44    19    43    1
    45    19    20    1
    46    20    45    1
