@<TRIPOS>MOLECULE
/tmp/ewbell/vina_2bvd_2bvd_lig/vina/vina5.pdbqt
 29 30 0 0 0
SMALL
GASTEIGER

@<TRIPOS>ATOM
      1  C6        15.6690   36.9320   15.7630 C.3   279  INH279      0.2920
      2  C7        16.2990   37.5240   17.0210 C.3   279  INH279      0.2040
      3  C8        17.8260   37.4810   16.9600 C.3   279  INH279      0.1830
      4  C9        18.3250   36.0810   16.5950 C.3   279  INH279      0.1800
      5  C10       17.6440   35.6560   15.2860 C.3   279  INH279      0.1790
      6  O8        16.2400   35.6440   15.5170 O.3   279  INH279     -0.3480
      7  O2        14.2810   36.7710   16.0130 O.3   279  INH279     -0.3490
      8  C2        13.4680   37.3540   14.9840 C.3   279  INH279      0.1790
      9  C1        12.5330   38.3810   15.6300 C.3   279  INH279      0.2660
     10  N1        11.4210   38.7550   14.7640 N.4   279  INH279     -0.0720
     11  H5        10.7580   39.2640   15.3270 H     279  INH279      0.2770
     12  H4        11.7860   39.3610   14.0470 H     279  INH279      0.2770
     13  C5        10.6890   37.6780   14.0960 C.3   279  INH279      0.2410
     14  C4        11.6840   36.7980   13.3420 C.3   279  INH279      0.0660
     15  C3        12.7210   36.2120   14.3080 C.3   279  INH279      0.1560
     16  C11       10.9400   35.7450   12.5120 C.3   279  INH279      0.1730
     17  O1        10.9800   34.4670   13.1550 O.3   279  INH279     -0.4000
     18  H1        11.7270   33.9750   12.8370 H     279  INH279      0.2090
     19  O3        13.6750   35.3650   13.6450 O.3   279  INH279     -0.3920
     20  H8        13.3470   35.1310   12.7850 H     279  INH279      0.2100
     21  O4        15.8340   38.8650   17.2460 O.3   279  INH279     -0.3880
     22  H14       14.9960   38.8390   17.6930 H     279  INH279      0.2100
     23  C12       18.0490   34.2620   14.8340 C.3   279  INH279      0.1980
     24  O7        19.0640   34.3850   13.8300 O.3   279  INH279     -0.3980
     25  H24       18.7980   33.9100   13.0520 H     279  INH279      0.2090
     26  O5        18.3530   37.8930   18.2260 O.3   279  INH279     -0.3900
     27  H16       19.2580   38.1620   18.1190 H     279  INH279      0.2100
     28  O6        19.7510   36.0760   16.4570 O.3   279  INH279     -0.3900
     29  H18       20.1150   35.3530   16.9550 H     279  INH279      0.2100
@<TRIPOS>BOND
     1    16    17    1
     2    16    14    1
     3    20    19    1
     4    18    17    1
     5    25    24    1
     6    14    13    1
     7    14    15    1
     8    19    15    1
     9    24    23    1
    10    12    10    1
    11    13    10    1
    12    15     8    1
    13    10    11    1
    14    10     9    1
    15    23     5    1
    16     8     9    1
    17     8     7    1
    18     5     6    1
    19     5     4    1
    20     6     1    1
    21     1     7    1
    22     1     2    1
    23    28     4    1
    24    28    29    1
    25     4     3    1
    26     3     2    1
    27     3    26    1
    28     2    21    1
    29    21    22    1
    30    27    26    1
