@<TRIPOS>MOLECULE
/tmp/ewbell/vina_2bvd_2bvd_lig/vina/vina1.pdbqt
 29 30 0 0 0
SMALL
GASTEIGER

@<TRIPOS>ATOM
      1  C6        14.8240   35.3380   14.5750 C.3   279  INH279      0.2920
      2  C7        14.6790   36.7930   15.0130 C.3   279  INH279      0.2040
      3  C8        13.2120   37.1800   15.2060 C.3   279  INH279      0.1830
      4  C9        12.3740   36.7950   13.9840 C.3   279  INH279      0.1800
      5  C10       12.5850   35.2990   13.7100 C.3   279  INH279      0.1790
      6  O8        13.9710   35.1020   13.4510 O.3   279  INH279     -0.3480
      7  O2        16.1690   35.1440   14.1690 O.3   279  INH279     -0.3490
      8  C2        16.7560   33.9750   14.7610 C.3   279  INH279      0.1790
      9  C1        15.9940   33.6500   16.0500 C.3   279  INH279      0.2660
     10  N1        16.7200   32.7330   16.9200 N.4   279  INH279     -0.0720
     11  H5        16.2560   32.7330   17.8140 H     279  INH279      0.2770
     12  H4        16.6580   31.8140   16.5100 H     279  INH279      0.2770
     13  C5        18.1370   33.0070   17.1640 C.3   279  INH279      0.2410
     14  C4        18.8510   33.1530   15.8210 C.3   279  INH279      0.0660
     15  C3        18.2260   34.2890   15.0030 C.3   279  INH279      0.1560
     16  C11       20.3620   33.2970   16.0360 C.3   279  INH279      0.1730
     17  O1        20.7250   34.6720   16.1990 O.3   279  INH279     -0.4000
     18  H1        21.6530   34.7350   16.3880 H     279  INH279      0.2090
     19  O3        18.8730   34.4740   13.7320 O.3   279  INH279     -0.3920
     20  H8        18.4360   35.1680   13.2530 H     279  INH279      0.2100
     21  O4        15.4350   37.0480   16.2080 O.3   279  INH279     -0.3880
     22  H14       15.4520   37.9830   16.3780 H     279  INH279      0.2100
     23  C12       11.8140   34.8050   12.4970 C.3   279  INH279      0.1980
     24  O7        10.5120   34.3850   12.9240 O.3   279  INH279     -0.3980
     25  H24       10.4120   34.5600   13.8520 H     279  INH279      0.2090
     26  O5        13.1320   38.5880   15.4520 O.3   279  INH279     -0.3900
     27  H16       12.8190   38.7370   16.3370 H     279  INH279      0.2100
     28  O6        10.9890   37.0850   14.2130 O.3   279  INH279     -0.3900
     29  H18       10.8400   38.0180   14.1130 H     279  INH279      0.2100
@<TRIPOS>BOND
     1    23    24    1
     2    23     5    1
     3    24    25    1
     4    20    19    1
     5     6     5    1
     6     6     1    1
     7     5     4    1
     8    19    15    1
     9     4    28    1
    10     4     3    1
    11    29    28    1
    12     7     1    1
    13     7     8    1
    14     1     2    1
    15     8    15    1
    16     8     9    1
    17    15    14    1
    18     2     3    1
    19     2    21    1
    20     3    26    1
    21    26    27    1
    22    14    16    1
    23    14    13    1
    24    16    17    1
    25     9    10    1
    26    17    18    1
    27    21    22    1
    28    12    10    1
    29    10    13    1
    30    10    11    1
