@<TRIPOS>MOLECULE
/tmp/ewbell/vina_2bvd_2bvd_lig/vina/vina3.pdbqt
 29 30 0 0 0
SMALL
GASTEIGER

@<TRIPOS>ATOM
      1  C6        20.4850   34.3810   16.8390 C.3   279  INH279      0.2920
      2  C7        21.8080   33.7830   16.3690 C.3   279  INH279      0.2040
      3  C8        22.9730   34.2240   17.2560 C.3   279  INH279      0.1830
      4  C9        22.9870   35.7440   17.4340 C.3   279  INH279      0.1800
      5  C10       21.6130   36.1770   17.9620 C.3   279  INH279      0.1790
      6  O8        20.6410   35.7950   16.9950 O.3   279  INH279     -0.3480
      7  O2        19.5220   34.1430   15.8250 O.3   279  INH279     -0.3490
      8  C2        18.1870   34.4530   16.2550 C.3   279  INH279      0.1790
      9  C1        17.4780   33.1440   16.6170 C.3   279  INH279      0.2660
     10  N1        16.0300   33.2900   16.6990 N.4   279  INH279     -0.0720
     11  H5        15.6350   32.3640   16.7380 H     279  INH279      0.2770
     12  H4        15.8240   33.7780   17.5570 H     279  INH279      0.2770
     13  C5        15.3570   34.0070   15.6150 C.3   279  INH279      0.2410
     14  C4        16.0250   35.3690   15.4340 C.3   279  INH279      0.0660
     15  C3        17.5140   35.1970   15.1100 C.3   279  INH279      0.1560
     16  C11       15.2550   36.2050   14.4060 C.3   279  INH279      0.1730
     17  O1        15.2560   35.5660   13.1250 O.3   279  INH279     -0.4000
     18  H1        14.4040   35.6680   12.7190 H     279  INH279      0.2090
     19  O3        18.1850   36.4540   14.9180 O.3   279  INH279     -0.3920
     20  H8        17.5610   37.1020   14.6120 H     279  INH279      0.2100
     21  O4        21.7300   32.3500   16.3030 O.3   279  INH279     -0.3880
     22  H14       21.8740   32.0660   15.4080 H     279  INH279      0.2100
     23  C12       21.5020   37.6810   18.1570 C.3   279  INH279      0.1980
     24  O7        22.0600   38.0170   19.4340 O.3   279  INH279     -0.3980
     25  H24       21.3610   38.1160   20.0690 H     279  INH279      0.2090
     26  O5        24.1990   33.7700   16.6720 O.3   279  INH279     -0.3900
     27  H16       24.6740   34.5130   16.3180 H     279  INH279      0.2100
     28  O6        24.0310   36.1340   18.3360 O.3   279  INH279     -0.3900
     29  H18       23.6610   36.6510   19.0430 H     279  INH279      0.2100
@<TRIPOS>BOND
     1    18    17    1
     2    17    16    1
     3    16    14    1
     4    20    19    1
     5    19    15    1
     6    15    14    1
     7    15     8    1
     8    22    21    1
     9    14    13    1
    10    13    10    1
    11     7     8    1
    12     7     1    1
    13     8     9    1
    14    21     2    1
    15    27    26    1
    16     2     1    1
    17     2     3    1
    18     9    10    1
    19    26     3    1
    20    10    11    1
    21    10    12    1
    22     1     6    1
    23     6     5    1
    24     3     4    1
    25     4     5    1
    26     4    28    1
    27     5    23    1
    28    23    24    1
    29    28    29    1
    30    24    25    1
