@<TRIPOS>MOLECULE
/tmp/ewbell/vina_2bvd_2bvd_lig/vina/vina2.pdbqt
 29 30 0 0 0
SMALL
GASTEIGER

@<TRIPOS>ATOM
      1  C6        14.2270   36.2680   14.9980 C.3   279  INH279      0.2920
      2  C7        13.6650   37.6720   15.1990 C.3   279  INH279      0.2040
      3  C8        12.1380   37.6850   15.1290 C.3   279  INH279      0.1830
      4  C9        11.6370   36.9720   13.8710 C.3   279  INH279      0.1800
      5  C10       12.2440   35.5610   13.8450 C.3   279  INH279      0.1790
      6  O8        13.6590   35.7040   13.8120 O.3   279  INH279     -0.3480
      7  O2        15.6290   36.3870   14.8150 O.3   279  INH279     -0.3490
      8  C2        16.3700   35.5200   15.6850 C.3   279  INH279      0.1790
      9  C1        16.8300   36.3320   16.9010 C.3   279  INH279      0.2660
     10  N1        17.8920   35.6720   17.6510 N.4   279  INH279     -0.0720
     11  H5        18.2680   36.3470   18.2980 H     279  INH279      0.2770
     12  H4        17.4720   34.9140   18.1660 H     279  INH279      0.2770
     13  C5        19.0150   35.1180   16.8950 C.3   279  INH279      0.2410
     14  C4        18.4710   34.1920   15.8080 C.3   279  INH279      0.0660
     15  C3        17.5300   34.9600   14.8720 C.3   279  INH279      0.1560
     16  C11       19.6230   33.4820   15.0890 C.3   279  INH279      0.1730
     17  O1        19.8610   34.0680   13.8050 O.3   279  INH279     -0.4000
     18  H1        20.3070   34.8990   13.9130 H     279  INH279      0.2090
     19  O3        16.9990   34.1320   13.8230 O.3   279  INH279     -0.3920
     20  H8        16.5150   34.6710   13.2090 H     279  INH279      0.2100
     21  O4        14.1240   38.2360   16.4380 O.3   279  INH279     -0.3880
     22  H14       13.6480   37.8420   17.1610 H     279  INH279      0.2100
     23  C12       11.8310   34.7620   12.6190 C.3   279  INH279      0.1980
     24  O7        10.4740   34.3350   12.7900 O.3   279  INH279     -0.3980
     25  H24       10.4570   33.5210   13.2790 H     279  INH279      0.2090
     26  O5        11.6820   39.0410   15.1580 O.3   279  INH279     -0.3900
     27  H16       12.1800   39.5280   15.8060 H     279  INH279      0.2100
     28  O6        10.2050   36.9150   13.8620 O.3   279  INH279     -0.3900
     29  H18        9.9210   36.1620   13.3560 H     279  INH279      0.2100
@<TRIPOS>BOND
     1    23    24    1
     2    23     5    1
     3    24    25    1
     4    20    19    1
     5    29    28    1
     6    17    18    1
     7    17    16    1
     8     6     5    1
     9     6     1    1
    10    19    15    1
    11     5     4    1
    12    28     4    1
    13     4     3    1
    14     7     1    1
    15     7     8    1
    16    15     8    1
    17    15    14    1
    18     1     2    1
    19    16    14    1
    20     3    26    1
    21     3     2    1
    22    26    27    1
    23     2    21    1
    24     8     9    1
    25    14    13    1
    26    21    22    1
    27    13    10    1
    28     9    10    1
    29    10    12    1
    30    10    11    1
