@<TRIPOS>MOLECULE
/tmp/ewbell/vina_2bvd_2bvd_lig/vina/vina4.pdbqt
 29 30 0 0 0
SMALL
GASTEIGER

@<TRIPOS>ATOM
      1  C6        13.8690   35.7510   14.3750 C.3   279  INH279      0.2920
      2  C7        15.1520   35.3400   13.6580 C.3   279  INH279      0.2040
      3  C8        16.0920   34.5660   14.5830 C.3   279  INH279      0.1830
      4  C9        16.3080   35.3140   15.9010 C.3   279  INH279      0.1800
      5  C10       14.9340   35.6020   16.5200 C.3   279  INH279      0.1790
      6  O8        14.2090   36.4090   15.5990 O.3   279  INH279     -0.3480
      7  O2        13.1880   36.6750   13.5410 O.3   279  INH279     -0.3490
      8  C2        11.7980   36.7950   13.8790 C.3   279  INH279      0.1790
      9  C1        10.9650   36.3610   12.6670 C.3   279  INH279      0.2660
     10  N1         9.5750   36.7930   12.7540 N.4   279  INH279     -0.0720
     11  H5         9.1580   36.6500   11.8480 H     279  INH279      0.2770
     12  H4         9.1170   36.2030   13.4300 H     279  INH279      0.2770
     13  C5         9.3180   38.1810   13.1380 C.3   279  INH279      0.2410
     14  C4        10.0540   38.4780   14.4440 C.3   279  INH279      0.0660
     15  C3        11.5600   38.2460   14.2730 C.3   279  INH279      0.1560
     16  C11        9.6910   39.8770   14.9520 C.3   279  INH279      0.1730
     17  O1        10.6880   40.8320   14.5730 O.3   279  INH279     -0.4000
     18  H1        11.3930   40.8240   15.2070 H     279  INH279      0.2090
     19  O3        12.3000   38.5240   15.4750 O.3   279  INH279     -0.3920
     20  H8        12.7530   39.3530   15.3820 H     279  INH279      0.2100
     21  O4        14.8590   34.5790   12.4750 O.3   279  INH279     -0.3880
     22  H14       14.0720   34.0650   12.6170 H     279  INH279      0.2100
     23  C12       15.0240   36.3660   17.8320 C.3   279  INH279      0.1980
     24  O7        16.3690   36.8340   17.9940 O.3   279  INH279     -0.3980
     25  H24       16.3580   37.7500   18.2450 H     279  INH279      0.2090
     26  O5        17.3370   34.3550   13.9090 O.3   279  INH279     -0.3900
     27  H16       17.3750   33.4620   13.5880 H     279  INH279      0.2100
     28  O6        17.1210   34.5380   16.7910 O.3   279  INH279     -0.3900
     29  H18       17.1160   33.6290   16.5140 H     279  INH279      0.2100
@<TRIPOS>BOND
     1    11    10    1
     2    21    22    1
     3    21     2    1
     4     9    10    1
     5     9     8    1
     6    10    13    1
     7    10    12    1
     8    13    14    1
     9     7     8    1
    10     7     1    1
    11    27    26    1
    12     2     1    1
    13     2     3    1
    14     8    15    1
    15    26     3    1
    16    15    14    1
    17    15    19    1
    18     1     6    1
    19    14    16    1
    20    17    16    1
    21    17    18    1
    22     3     4    1
    23    20    19    1
    24     6     5    1
    25     4     5    1
    26     4    28    1
    27    29    28    1
    28     5    23    1
    29    23    24    1
    30    24    25    1
