@<TRIPOS>MOLECULE
./ligand/2gkl_lig.pdb
 15 15 0 0 0
SMALL
GASTEIGER

@<TRIPOS>ATOM
      1  O1        19.3660   49.2270   66.3240 O.co2 228  INH228     -0.2406
      2  C1        18.2170   49.0580   66.8030 C.2   228  INH228      0.3867
      3  O2        17.2940   49.8860   66.6170 O.co2 228  INH228     -0.2406
      4  C2        17.9230   47.8450   67.6490 C.ar  228  INH228      0.0668
      5  C3        16.6120   47.4010   67.7940 C.ar  228  INH228     -0.0294
      6  C4        16.3330   46.2900   68.5930 C.ar  228  INH228      0.0293
      7  C5        18.9400   47.1580   68.3170 C.ar  228  INH228     -0.0150
      8  C6        18.6080   46.0370   69.0900 C.ar  228  INH228      0.1525
      9  N1        17.3200   45.6470   69.2100 N.ar  228  INH228     -0.2483
     10  C7        19.6640   45.2600   69.8330 C.2   228  INH228      0.4045
     11  O3        20.8630   45.6440   69.7830 O.co2 228  INH228     -0.2389
     12  O4        19.3010   44.2530   70.4800 O.co2 228  INH228     -0.2389
     13  H1        15.8060   47.9180   67.2860 H     228  INH228      0.0641
     14  H2        15.3100   45.9510   68.7100 H     228  INH228      0.0830
     15  H3        19.9700   47.4870   68.2390 H     228  INH228      0.0649
@<TRIPOS>BOND
     1     1     2   ar
     2     2     4    1
     3     2     3   ar
     4     4     7   ar
     5     4     5   ar
     6     5    13    1
     7     5     6   ar
     8     6    14    1
     9     6     9   ar
    10     7     8   ar
    11     7    15    1
    12     8     9   ar
    13     8    10    1
    14    10    12   ar
    15    10    11   ar
