@<TRIPOS>MOLECULE
/tmp/ewbell/vina_2gkl_2gkl_lig/vina/vina5.pdbqt
 15 15 0 0 0
SMALL
GASTEIGER

@<TRIPOS>ATOM
      1  C2        15.4230   47.5430   69.4720 C.3   228  INH228      0.0410
      2  C3        16.2130   46.6800   68.7200 C.2   228  INH228      0.0350
      3  C4        16.7030   47.0830   67.4760 C.2   228  INH228      0.0890
      4  C5        15.1380   48.8100   68.9560 C.2   228  INH228      0.0540
      5  C6        15.6370   49.1580   67.6940 C.2   228  INH228      0.1070
      6  N1        16.4080   48.2900   67.0020 N.pl3 228  INH228     -0.3600
      7  H1        16.7740   48.5690   66.0910 H     228  INH228      0.1650
      8  C1        14.9150   47.1120   70.8250 C.2   228  INH228      0.1760
      9  O1        13.8340   47.5760   71.2670 O.2   228  INH228     -0.6460
     10  O2        15.6090   46.3040   71.4860 O.3   228  INH228     -0.7730
     11  H         15.4880   45.3810   71.3740 H     228  INH228      0.1670
     12  C7        15.3620   50.5110   67.0900 C.2   228  INH228      0.1930
     13  O4        16.1150   50.9040   66.1720 O.2   228  INH228     -0.6450
     14  O3        14.3970   51.1960   67.5230 O.3   228  INH228     -0.7720
     15  H         14.5000   51.7130   68.2980 H     228  INH228      0.1670
@<TRIPOS>BOND
     1     7     6    1
     2    13    12    2
     3     6     3    1
     4     6     5    1
     5    12    14    1
     6    12     5    1
     7     3     2    2
     8    14    15    1
     9     5     4    2
    10     2     1    1
    11     4     1    1
    12     1     8    1
    13     8     9    2
    14     8    10    1
    15    11    10    1
