@<TRIPOS>MOLECULE
/tmp/ewbell/vina_2gkl_2gkl_lig/vina/vina1.pdbqt
 15 15 0 0 0
SMALL
GASTEIGER

@<TRIPOS>ATOM
      1  C2        18.2600   46.2340   69.3720 C.3   228  INH228      0.0410
      2  C3        18.1320   46.6140   68.0390 C.2   228  INH228      0.0350
      3  C4        16.9660   47.2440   67.5990 C.2   228  INH228      0.0890
      4  C5        17.2040   46.4970   70.2470 C.2   228  INH228      0.0540
      5  C6        16.0480   47.1140   69.7500 C.2   228  INH228      0.1070
      6  N1        15.9710   47.4750   68.4500 N.pl3 228  INH228     -0.3600
      7  H1        15.1260   47.9360   68.1130 H     228  INH228      0.1650
      8  C1        19.5300   45.5730   69.8470 C.2   228  INH228      0.1760
      9  O1        20.6440   45.9930   69.4470 O.2   228  INH228     -0.6460
     10  O2        19.4310   44.5940   70.6240 O.3   228  INH228     -0.7730
     11  H         19.3810   44.7330   71.5490 H     228  INH228      0.1670
     12  C7        14.8790   47.4240   70.6500 C.2   228  INH228      0.1930
     13  O4        15.1040   48.0710   71.6970 O.2   228  INH228     -0.6450
     14  O3        13.7280   47.0270   70.3270 O.3   228  INH228     -0.7720
     15  H         13.4980   46.1240   70.4290 H     228  INH228      0.1670
@<TRIPOS>BOND
     1     3     2    2
     2     3     6    1
     3     2     1    1
     4     7     6    1
     5     6     5    1
     6     1     8    1
     7     1     4    1
     8     9     8    2
     9     5     4    2
    10     5    12    1
    11     8    10    1
    12    14    15    1
    13    14    12    1
    14    10    11    1
    15    12    13    2
