@<TRIPOS>MOLECULE
/tmp/ewbell/vina_2gkl_2gkl_lig/vina/vina4.pdbqt
 15 15 0 0 0
SMALL
GASTEIGER

@<TRIPOS>ATOM
      1  C2        16.2110   49.7570   69.0050 C.3   228  INH228      0.0410
      2  C3        14.8200   49.8060   69.0240 C.2   228  INH228      0.0350
      3  C4        14.0880   48.7380   69.5470 C.2   228  INH228      0.0890
      4  C5        16.8470   48.6230   69.5180 C.2   228  INH228      0.0540
      5  C6        16.0650   47.5710   70.0120 C.2   228  INH228      0.1070
      6  N1        14.7180   47.6660   70.0200 N.pl3 228  INH228     -0.3600
      7  H1        14.1680   46.8940   70.3980 H     228  INH228      0.1650
      8  C1        16.9970   50.9220   68.4590 C.2   228  INH228      0.1760
      9  O1        16.4120   51.9950   68.1720 O.2   228  INH228     -0.6460
     10  O2        18.2300   50.7730   68.2880 O.3   228  INH228     -0.7730
     11  H         18.5850   50.7620   67.4210 H     228  INH228      0.1670
     12  C7        16.6990   46.3260   70.5780 C.2   228  INH228      0.1930
     13  O4        17.8000   45.9660   70.1070 O.2   228  INH228     -0.6450
     14  O3        16.1080   45.6940   71.4950 O.3   228  INH228     -0.7720
     15  H         15.9100   46.1210   72.3060 H     228  INH228      0.1670
@<TRIPOS>BOND
     1    11    10    1
     2     9     8    2
     3    10     8    1
     4     8     1    1
     5     1     2    1
     6     1     4    1
     7     2     3    2
     8     4     5    2
     9     3     6    1
    10     5     6    1
    11     5    12    1
    12     6     7    1
    13    13    12    2
    14    12    14    1
    15    14    15    1
