@<TRIPOS>MOLECULE
/tmp/ewbell/vina_2gkl_2gkl_lig/vina/vina2.pdbqt
 15 15 0 0 0
SMALL
GASTEIGER

@<TRIPOS>ATOM
      1  C2        15.7540   47.4620   69.4360 C.3   228  INH228      0.0410
      2  C3        15.8850   48.0520   68.1830 C.2   228  INH228      0.0350
      3  C4        17.0750   47.9160   67.4650 C.2   228  INH228      0.0890
      4  C5        16.8320   46.7380   69.9510 C.2   228  INH228      0.0540
      5  C6        18.0110   46.6480   69.1990 C.2   228  INH228      0.1070
      6  N1        18.0910   47.2300   67.9810 N.pl3 228  INH228     -0.3600
      7  H1        18.9540   47.1390   67.4440 H     228  INH228      0.1650
      8  C1        14.4590   47.5940   70.1980 C.2   228  INH228      0.1760
      9  O1        13.5760   48.3960   69.8020 O.2   228  INH228     -0.6460
     10  O2        14.3100   46.9020   71.2330 O.3   228  INH228     -0.7730
     11  H         14.0810   45.9960   71.1620 H     228  INH228      0.1670
     12  C7        19.2040   45.8780   69.7040 C.2   228  INH228      0.1930
     13  O4        20.3320   46.1980   69.2690 O.2   228  INH228     -0.6450
     14  O3        19.0310   44.9480   70.5360 O.3   228  INH228     -0.7720
     15  H         18.1760   44.7810   70.8810 H     228  INH228      0.1670
@<TRIPOS>BOND
     1     7     6    1
     2     3     6    1
     3     3     2    2
     4     6     5    1
     5     2     1    1
     6     5    12    1
     7     5     4    2
     8    13    12    2
     9     1     4    1
    10     1     8    1
    11    12    14    1
    12     9     8    2
    13     8    10    1
    14    14    15    1
    15    11    10    1
