@<TRIPOS>MOLECULE
/tmp/ewbell/vina_2gkl_2gkl_lig/vina/vina3.pdbqt
 15 15 0 0 0
SMALL
GASTEIGER

@<TRIPOS>ATOM
      1  C2        15.8800   48.7720   67.7020 C.3   228  INH228      0.0410
      2  C3        16.4840   47.8460   66.8570 C.2   228  INH228      0.0350
      3  C4        16.8400   46.5850   67.3400 C.2   228  INH228      0.0890
      4  C5        15.6430   48.4110   69.0300 C.2   228  INH228      0.0540
      5  C6        16.0380   47.1400   69.4700 C.2   228  INH228      0.1070
      6  N1        16.6130   46.2690   68.6120 N.pl3 228  INH228     -0.3600
      7  H1        16.8790   45.3430   68.9490 H     228  INH228      0.1650
      8  C1        15.4770   50.1240   67.1700 C.2   228  INH228      0.1760
      9  O1        14.5600   50.7730   67.7330 O.2   228  INH228     -0.6460
     10  O2        16.0670   50.5580   66.1520 O.3   228  INH228     -0.7730
     11  H         16.7820   50.0770   65.7840 H     228  INH228      0.1670
     12  C7        15.8050   46.6970   70.8910 C.2   228  INH228      0.1930
     13  O4        15.1030   47.4290   71.6230 O.2   228  INH228     -0.6450
     14  O3        16.3180   45.6190   71.2950 O.3   228  INH228     -0.7720
     15  H         16.1020   44.8110   70.8730 H     228  INH228      0.1670
@<TRIPOS>BOND
     1    11    10    1
     2    10     8    1
     3     2     3    2
     4     2     1    1
     5     8     1    1
     6     8     9    2
     7     3     6    1
     8     1     4    1
     9     6     7    1
    10     6     5    1
    11     4     5    2
    12     5    12    1
    13    15    14    1
    14    12    14    1
    15    12    13    2
