@<TRIPOS>MOLECULE
./ligand/2jff_lig.pdb
 49 50 0 0 0
SMALL
GASTEIGER

@<TRIPOS>ATOM
      1  C1       -18.5380    0.8140   17.6750 C.ar  440  INH440     -0.0505
      2  C2       -19.7860    2.3120   20.8480 C.ar  440  INH440     -0.0521
      3  C3       -17.6290   -0.1490   18.1910 C.ar  440  INH440     -0.0193
      4  C4       -20.6850    3.2660   20.3470 C.ar  440  INH440     -0.0348
      5  C5       -18.1690    0.5510   20.4830 C.ar  440  INH440     -0.0122
      6  C6       -20.1750    2.5890   18.0920 C.ar  440  INH440     -0.0276
      7  C7       -19.0670    1.4980   19.9670 C.ar  440  INH440     -0.0143
      8  C8       -19.2560    1.6350   18.5730 C.ar  440  INH440     -0.0158
      9  C9       -17.4530   -0.2710   19.5830 C.ar  440  INH440      0.1211
     10  C10      -20.8850    3.4240   18.9710 C.ar  440  INH440      0.1059
     11  C11      -27.2290    1.3350   20.2880 C.2   440  INH440      0.3561
     12  C12      -24.9150    5.0380   20.0050 C.2   440  INH440      0.3742
     13  C13      -12.1790   -1.1210   20.6040 C.3   440  INH440     -0.0652
     14  C14      -26.3460    2.5600   20.4160 C.3   440  INH440      0.0512
     15  C15      -13.5990   -0.6210   20.5160 C.3   440  INH440     -0.0528
     16  C16      -25.3040    2.6510   19.2910 C.3   440  INH440     -0.0152
     17  C17      -14.5000   -1.5200   21.3490 C.3   440  INH440     -0.0189
     18  C18      -15.9440   -1.0340   21.3780 C.3   440  INH440      0.0896
     19  C19      -24.2530    3.7370   19.5640 C.3   440  INH440      0.1302
     20  N1       -23.4250    3.8850   18.3550 N.3   440  INH440     -0.1760
     21  O1       -28.0300    1.1560   21.2340 O.co2 440  INH440     -0.2464
     22  O2       -25.0870    5.2830   21.2310 O.co2 440  INH440     -0.2445
     23  O3       -27.1460    0.5700   19.2940 O.co2 440  INH440     -0.2464
     24  O4       -25.2850    5.8350   19.1220 O.co2 440  INH440     -0.2445
     25  O5       -22.0190    5.6770   19.3350 O.2   440  INH440     -0.1530
     26  O6       -21.5980    4.9850   17.0550 O.2   440  INH440     -0.1530
     27  O7       -16.5530   -1.2000   20.0870 O.3   440  INH440     -0.4919
     28  S1       -21.9440    4.5360   18.4290 S.O2  440  INH440      0.0591
     29  H1       -18.6780    0.9170   16.6090 H     440  INH440      0.0625
     30  H2       -19.6490    2.2060   21.9140 H     440  INH440      0.0624
     31  H3       -17.0750   -0.7860   17.5170 H     440  INH440      0.0654
     32  H4       -21.2330    3.8910   21.0370 H     440  INH440      0.0637
     33  H5       -18.0270    0.4520   21.5490 H     440  INH440      0.0660
     34  H6       -20.3370    2.6800   17.0280 H     440  INH440      0.0643
     35  H7       -11.7690   -1.2430   19.5900 H     440  INH440      0.0230
     36  H8       -11.5690   -0.3950   21.1610 H     440  INH440      0.0230
     37  H9       -12.1630   -2.0900   21.1240 H     440  INH440      0.0230
     38  H10      -25.8170    2.5100   21.3790 H     440  INH440      0.0380
     39  H11      -26.9910    3.4490   20.3510 H     440  INH440      0.0380
     40  H12      -13.6510    0.4090   20.8990 H     440  INH440      0.0264
     41  H13      -13.9310   -0.6360   19.4670 H     440  INH440      0.0264
     42  H14      -25.8220    2.8920   18.3510 H     440  INH440      0.0291
     43  H15      -24.7850    1.6830   19.2290 H     440  INH440      0.0291
     44  H16      -14.4810   -2.5300   20.9150 H     440  INH440      0.0298
     45  H17      -14.1220   -1.5100   22.3820 H     440  INH440      0.0298
     46  H18      -15.9610    0.0310   21.6520 H     440  INH440      0.0696
     47  H19      -16.5060   -1.6240   22.1170 H     440  INH440      0.0696
     48  H20      -23.5980    3.4470   20.3990 H     440  INH440      0.0594
     49  H21      -23.9490    4.4710   17.7370 H     440  INH440      0.1489
@<TRIPOS>BOND
     1     1     3   ar
     2     1    29    1
     3     1     8   ar
     4     2     4   ar
     5     2    30    1
     6     2     7   ar
     7     3     9   ar
     8     3    31    1
     9     4    10   ar
    10     4    32    1
    11     5     7   ar
    12     5    33    1
    13     5     9   ar
    14     6    10   ar
    15     6     8   ar
    16     6    34    1
    17     7     8   ar
    18     9    27    1
    19    10    28    1
    20    11    23   ar
    21    11    21   ar
    22    11    14    1
    23    12    19    1
    24    12    24   ar
    25    12    22   ar
    26    13    15    1
    27    13    37    1
    28    13    36    1
    29    13    35    1
    30    14    39    1
    31    14    38    1
    32    14    16    1
    33    15    17    1
    34    15    41    1
    35    15    40    1
    36    16    43    1
    37    16    42    1
    38    16    19    1
    39    17    18    1
    40    17    45    1
    41    17    44    1
    42    18    27    1
    43    18    47    1
    44    18    46    1
    45    19    48    1
    46    19    20    1
    47    20    49    1
    48    20    28    1
    49    25    28    2
    50    26    28    2
