@<TRIPOS>MOLECULE
/tmp/ewbell/vina_2jff_2jff_lig/vina/vina1.pdbqt
 31 32 0 0 0
SMALL
GASTEIGER

@<TRIPOS>ATOM
      1  O5       -27.4960    8.4580   18.3780 O.2   440  INH440     -0.2060
      2  O6       -26.1840    9.5480   16.6630 O.2   440  INH440     -0.2060
      3  S1       -27.0560    8.3890   16.9890 S.O2  440  INH440      0.2420
      4  C10      -26.3030    6.9780   16.6810 C.ar  440  INH440      0.0750
      5  C4       -25.1070    6.9720   15.9550 C.ar  440  INH440      0.0260
      6  C2       -24.4280    5.7750   15.6790 C.ar  440  INH440      0.0140
      7  C7       -24.9470    4.5570   16.1290 C.ar  440  INH440     -0.0230
      8  C5       -24.2590    3.3680   15.8420 C.ar  440  INH440      0.0490
      9  C8       -26.1510    4.5380   16.8690 C.ar  440  INH440     -0.0240
     10  C9       -24.7890    2.1440   16.3080 C.ar  440  INH440      0.0690
     11  C3       -25.9870    2.1060   17.0470 C.ar  440  INH440      0.0370
     12  C1       -26.6800    3.3130   17.3330 C.ar  440  INH440      0.0150
     13  C6       -26.8080    5.7530   17.1480 C.ar  440  INH440      0.0370
     14  O7       -24.1200    0.9630   16.0150 O.3   440  INH440     -0.3510
     15  C18      -24.7880   -0.1430   15.3860 C.3   440  INH440      0.1750
     16  C17      -24.8200    0.0480   13.8740 C.3   440  INH440      0.0260
     17  C15      -26.2350    0.1990   13.3360 C.3   440  INH440     -0.0020
     18  C13      -26.6240    1.6560   13.3570 C.3   440  INH440      0.0050
     19  N1       -28.3770    8.5150   16.0610 N.3   440  INH440     -0.2010
     20  H21      -28.6320    9.4810   16.0790 H     440  INH440      0.1410
     21  C19      -29.6070    7.7700   16.3830 C.3   440  INH440      0.1690
     22  C12      -30.7010    8.6440   16.9860 C.2   440  INH440      0.1590
     23  O4       -30.8800    8.5920   18.2180 O.2   440  INH440     -0.6490
     24  O2       -31.3890    9.4040   16.2500 O.3   440  INH440     -0.7750
     25  H        -31.0220    9.7490   15.4600 H     440  INH440      0.1670
     26  C16      -30.0960    7.0830   15.1000 C.3   440  INH440      0.0420
     27  C14      -29.6100    7.8080   13.8350 C.3   440  INH440      0.1120
     28  C11      -30.7430    8.1320   12.8820 C.2   440  INH440      0.1390
     29  O3       -30.7010    7.7850   11.6760 O.2   440  INH440     -0.6500
     30  O1       -31.7000    8.7610   13.3890 O.3   440  INH440     -0.7760
     31  H        -32.3620    8.3030   13.8670 H     440  INH440      0.1670
@<TRIPOS>BOND
     1    29    28    2
     2    28    30    1
     3    28    27    1
     4    17    18    1
     5    17    16    1
     6    30    31    1
     7    27    26    1
     8    16    15    1
     9    26    21    1
    10    15    14    1
    11    25    24    1
    12     6     5   ar
    13     6     7   ar
    14     8     7   ar
    15     8    10   ar
    16     5     4   ar
    17    14    10    1
    18    19    20    1
    19    19    21    1
    20    19     3    1
    21     7     9   ar
    22    24    22    1
    23    10    11   ar
    24    21    22    1
    25     2     3    2
    26     4     3    1
    27     4    13   ar
    28     9    13   ar
    29     9    12   ar
    30    22    23    2
    31     3     1    2
    32    11    12   ar
