@<TRIPOS>MOLECULE
/tmp/ewbell/vina_2jff_2jff_lig/vina/vina2.pdbqt
 31 32 0 0 0
SMALL
GASTEIGER

@<TRIPOS>ATOM
      1  O5       -27.6780    8.5490   18.3200 O.2   440  INH440     -0.2060
      2  O6       -26.3550    9.7120   16.6610 O.2   440  INH440     -0.2060
      3  S1       -27.1410    8.4870   16.9650 S.O2  440  INH440      0.2420
      4  C10      -26.2470    7.1440   16.7480 C.ar  440  INH440      0.0750
      5  C4       -26.8330    5.8830   16.9120 C.ar  440  INH440      0.0260
      6  C2       -26.0930    4.7060   16.7250 C.ar  440  INH440      0.0140
      7  C7       -24.7420    4.7770   16.3700 C.ar  440  INH440     -0.0230
      8  C5       -24.0150    3.5900   16.1900 C.ar  440  INH440      0.0490
      9  C8       -24.1290    6.0380   16.1930 C.ar  440  INH440     -0.0240
     10  C9       -22.6520    3.6750   15.8240 C.ar  440  INH440      0.0690
     11  C3       -22.0250    4.9230   15.6430 C.ar  440  INH440      0.0370
     12  C1       -22.7670    6.1200   15.8300 C.ar  440  INH440      0.0150
     13  C6       -24.8950    7.2080   16.3710 C.ar  440  INH440      0.0370
     14  O7       -21.9240    2.5050   15.6590 O.3   440  INH440     -0.3510
     15  C18      -21.0800    1.9900   16.7010 C.3   440  INH440      0.1750
     16  C17      -19.7110    2.6580   16.6540 C.3   440  INH440      0.0260
     17  C15      -19.3580    3.3570   17.9570 C.3   440  INH440     -0.0020
     18  C13      -20.5980    3.4850   18.8060 C.3   440  INH440      0.0050
     19  N1       -28.4030    8.4700   15.9500 N.3   440  INH440     -0.2010
     20  H21      -28.6810    9.4250   15.8450 H     440  INH440      0.1410
     21  C19      -29.6330    7.7290   16.2770 C.3   440  INH440      0.1690
     22  C12      -30.7160    8.6020   16.9000 C.2   440  INH440      0.1590
     23  O4       -30.8490    8.5770   18.1390 O.2   440  INH440     -0.6490
     24  O2       -31.4420    9.3350   16.1730 O.3   440  INH440     -0.7750
     25  H        -31.8040   10.1270   16.5200 H     440  INH440      0.1670
     26  C16      -30.1390    7.0580   14.9920 C.3   440  INH440      0.0420
     27  C14      -29.7010    7.8190   13.7320 C.3   440  INH440      0.1120
     28  C11      -30.8640    8.1300   12.8110 C.2   440  INH440      0.1390
     29  O3       -30.8810    7.7250   11.6210 O.2   440  INH440     -0.6500
     30  O1       -31.7810    8.8090   13.3250 O.3   440  INH440     -0.7760
     31  H        -32.3660    9.2960   12.7790 H     440  INH440      0.1670
@<TRIPOS>BOND
     1    29    28    2
     2    31    30    1
     3    28    30    1
     4    28    27    1
     5    27    26    1
     6    26    21    1
     7    11    10   ar
     8    11    12   ar
     9    14    10    1
    10    14    15    1
    11    10     8   ar
    12    12     9   ar
    13    20    19    1
    14    19    21    1
    15    19     3    1
    16    24    25    1
    17    24    22    1
    18     8     7   ar
    19     9     7   ar
    20     9    13   ar
    21    21    22    1
    22     7     6   ar
    23    13     4   ar
    24    16    15    1
    25    16    17    1
    26     2     3    2
    27     6     5   ar
    28     4     5   ar
    29     4     3    1
    30    22    23    2
    31     3     1    2
    32    17    18    1
