@<TRIPOS>MOLECULE
/tmp/ewbell/vina_2jff_2jff_lig/vina/vina3.pdbqt
 31 32 0 0 0
SMALL
GASTEIGER

@<TRIPOS>ATOM
      1  O5       -27.3080    8.0100   18.2400 O.2   440  INH440     -0.2060
      2  O6       -26.0020    9.1710   16.5670 O.2   440  INH440     -0.2060
      3  S1       -27.0110    8.1080   16.8150 S.O2  440  INH440      0.2420
      4  C10      -26.5200    6.6760   16.2170 C.ar  440  INH440      0.0750
      5  C4       -27.3360    5.9800   15.3180 C.ar  440  INH440      0.0260
      6  C2       -26.9400    4.7470   14.7770 C.ar  440  INH440      0.0140
      7  C7       -25.7090    4.1900   15.1360 C.ar  440  INH440     -0.0230
      8  C5       -25.3280    2.9540   14.5900 C.ar  440  INH440      0.0490
      9  C8       -24.8640    4.8760   16.0380 C.ar  440  INH440     -0.0240
     10  C9       -24.0780    2.4040   14.9550 C.ar  440  INH440      0.0690
     11  C3       -23.2230    3.0740   15.8510 C.ar  440  INH440      0.0370
     12  C1       -23.6160    4.3230   16.4030 C.ar  440  INH440      0.0150
     13  C6       -25.2750    6.1200   16.5570 C.ar  440  INH440      0.0370
     14  O7       -23.7020    1.1760   14.4280 O.3   440  INH440     -0.3510
     15  C18      -23.7460   -0.0250   15.2160 C.3   440  INH440      0.1750
     16  C17      -25.0980   -0.1560   15.9070 C.3   440  INH440      0.0260
     17  C15      -25.0060    0.0440   17.4120 C.3   440  INH440     -0.0020
     18  C13      -26.0390    1.0530   17.8450 C.3   440  INH440      0.0050
     19  N1       -28.3750    8.5690   16.0730 N.3   440  INH440     -0.2010
     20  H21      -28.5410    9.5100   16.3660 H     440  INH440      0.1410
     21  C19      -29.6420    7.8520   16.2950 C.3   440  INH440      0.1690
     22  C12      -30.6830    8.6820   17.0370 C.2   440  INH440      0.1590
     23  O4       -30.7460    8.5700   18.2770 O.2   440  INH440     -0.6490
     24  O2       -31.4450    9.4650   16.4050 O.3   440  INH440     -0.7750
     25  H        -31.1560    9.8510   15.6010 H     440  INH440      0.1670
     26  C16      -30.1750    7.3950   14.9290 C.3   440  INH440      0.0420
     27  C14      -30.1990    8.5400   13.9060 C.3   440  INH440      0.1120
     28  C11      -31.0980    8.2400   12.7230 C.2   440  INH440      0.1390
     29  O3       -32.3340    8.4600   12.7690 O.2   440  INH440     -0.6500
     30  O1       -30.5160    7.7630   11.7210 O.3   440  INH440     -0.7760
     31  H        -29.9790    8.3130   11.1860 H     440  INH440      0.1670
@<TRIPOS>BOND
     1    31    30    1
     2    30    28    1
     3    28    29    2
     4    28    27    1
     5    27    26    1
     6    14    10    1
     7    14    15    1
     8     8    10   ar
     9     8     7   ar
    10     6     7   ar
    11     6     5   ar
    12    26    21    1
    13    10    11   ar
    14     7     9   ar
    15    15    16    1
    16     5     4   ar
    17    25    24    1
    18    11    12   ar
    19    16    17    1
    20     9    12   ar
    21     9    13   ar
    22    19    21    1
    23    19    20    1
    24    19     3    1
    25     4    13   ar
    26     4     3    1
    27    21    22    1
    28    24    22    1
    29     2     3    2
    30     3     1    2
    31    22    23    2
    32    17    18    1
