@<TRIPOS>MOLECULE
/tmp/ewbell/vina_2jff_2jff_lig/vina/vina4.pdbqt
 31 32 0 0 0
SMALL
GASTEIGER

@<TRIPOS>ATOM
      1  O5       -27.7080    5.7430   13.5340 O.2   440  INH440     -0.2060
      2  O6       -29.2180    4.9590   15.2540 O.2   440  INH440     -0.2060
      3  S1       -28.0660    5.8460   14.9440 S.O2  440  INH440      0.2420
      4  C10      -26.7900    5.5110   15.9000 C.ar  440  INH440      0.0750
      5  C4       -25.4900    5.6850   15.4110 C.ar  440  INH440      0.0260
      6  C2       -24.3690    5.4140   16.2100 C.ar  440  INH440      0.0140
      7  C7       -24.5380    4.9580   17.5210 C.ar  440  INH440     -0.0230
      8  C5       -23.4070    4.6880   18.3060 C.ar  440  INH440      0.0490
      9  C8       -25.8410    4.7800   18.0390 C.ar  440  INH440     -0.0240
     10  C9       -23.5900    4.2340   19.6330 C.ar  440  INH440      0.0690
     11  C3       -24.8810    4.0510   20.1660 C.ar  440  INH440      0.0370
     12  C1       -26.0220    4.3240   19.3640 C.ar  440  INH440      0.0150
     13  C6       -26.9530    5.0730   17.2240 C.ar  440  INH440      0.0370
     14  O7       -22.4750    3.9510   20.4100 O.3   440  INH440     -0.3510
     15  C18      -21.5760    4.9870   20.8390 C.3   440  INH440      0.1750
     16  C17      -22.0170    5.5470   22.1860 C.3   440  INH440      0.0260
     17  C15      -22.5470    4.4700   23.1200 C.3   440  INH440     -0.0020
     18  C13      -21.4850    4.1220   24.1320 C.3   440  INH440      0.0050
     19  N1       -28.5560    7.3670   15.2050 N.3   440  INH440     -0.2010
     20  H21      -28.2160    7.6110   16.1120 H     440  INH440      0.1410
     21  C19      -29.9870    7.7160   15.2060 C.3   440  INH440      0.1690
     22  C12      -30.4560    8.3340   16.5180 C.2   440  INH440      0.1590
     23  O4       -29.5990    8.5800   17.3890 O.2   440  INH440     -0.6490
     24  O2       -31.6770    8.5960   16.7010 O.3   440  INH440     -0.7750
     25  H        -32.3060    7.9020   16.7210 H     440  INH440      0.1670
     26  C16      -30.2460    8.6660   14.0270 C.3   440  INH440      0.0420
     27  C14      -30.3780    7.9110   12.6960 C.3   440  INH440      0.1120
     28  C11      -31.7860    7.9650   12.1380 C.2   440  INH440      0.1390
     29  O3       -32.0840    7.3950   11.0590 O.2   440  INH440     -0.6500
     30  O1       -32.6060    8.6130   12.8290 O.3   440  INH440     -0.7760
     31  H        -32.3740    9.4550   13.1640 H     440  INH440      0.1670
@<TRIPOS>BOND
     1    29    28    2
     2    28    27    1
     3    28    30    1
     4    27    26    1
     5    30    31    1
     6     1     3    2
     7    26    21    1
     8     3    19    1
     9     3     2    2
    10     3     4    1
    11    19    21    1
    12    19    20    1
    13    21    22    1
    14     5     4   ar
    15     5     6   ar
    16     4    13   ar
    17     6     7   ar
    18    22    24    1
    19    22    23    2
    20    24    25    1
    21    13     9   ar
    22     7     9   ar
    23     7     8   ar
    24     9    12   ar
    25     8    10   ar
    26    12    11   ar
    27    10    11   ar
    28    10    14    1
    29    14    15    1
    30    15    16    1
    31    16    17    1
    32    17    18    1
