@<TRIPOS>MOLECULE
/tmp/ewbell/vina_2jff_2jff_lig/vina/vina5.pdbqt
 31 32 0 0 0
SMALL
GASTEIGER

@<TRIPOS>ATOM
      1  O5       -28.0350    4.3380   14.4870 O.2   440  INH440     -0.2060
      2  O6       -29.2330    4.7400   16.5500 O.2   440  INH440     -0.2060
      3  S1       -28.0050    5.0380   15.7670 S.O2  440  INH440      0.2420
      4  C10      -26.6620    4.6650   16.6090 C.ar  440  INH440      0.0750
      5  C4       -26.7150    3.6810   17.6030 C.ar  440  INH440      0.0260
      6  C2       -25.5740    3.3300   18.3410 C.ar  440  INH440      0.0140
      7  C7       -24.3560    3.9700   18.0930 C.ar  440  INH440     -0.0230
      8  C5       -23.2250    3.6100   18.8420 C.ar  440  INH440      0.0490
      9  C8       -24.2770    4.9630   17.0900 C.ar  440  INH440     -0.0240
     10  C9       -21.9970    4.2590   18.5770 C.ar  440  INH440      0.0690
     11  C3       -21.8990    5.2500   17.5820 C.ar  440  INH440      0.0370
     12  C1       -23.0490    5.6110   16.8280 C.ar  440  INH440      0.0150
     13  C6       -25.4300    5.2890   16.3500 C.ar  440  INH440      0.0370
     14  O7       -20.8780    3.9170   19.3250 O.3   440  INH440     -0.3510
     15  C18      -20.9800    3.5710   20.7150 C.3   440  INH440      0.1750
     16  C17      -20.3400    4.6520   21.5790 C.3   440  INH440      0.0260
     17  C15      -21.3600    5.4100   22.4150 C.3   440  INH440     -0.0020
     18  C13      -22.6820    4.6860   22.3660 C.3   440  INH440      0.0050
     19  N1       -28.0230    6.6250   15.4450 N.3   440  INH440     -0.2010
     20  H21      -27.0660    6.8910   15.3340 H     440  INH440      0.1410
     21  C19      -28.5970    7.5880   16.4000 C.3   440  INH440      0.1690
     22  C12      -27.5540    8.4960   17.0430 C.2   440  INH440      0.1590
     23  O4       -26.8400    8.0190   17.9460 O.2   440  INH440     -0.6490
     24  O2       -27.4190    9.6890   16.6540 O.3   440  INH440     -0.7750
     25  H        -26.8890    9.8800   15.9050 H     440  INH440      0.1670
     26  C16      -29.6620    8.4120   15.6610 C.3   440  INH440      0.0420
     27  C14      -30.2630    7.6470   14.4720 C.3   440  INH440      0.1120
     28  C11      -30.7180    8.5710   13.3600 C.2   440  INH440      0.1390
     29  O3       -31.9020    8.5550   12.9410 O.2   440  INH440     -0.6500
     30  O1       -29.8320    9.3310   12.9060 O.3   440  INH440     -0.7760
     31  H        -29.0500    8.9710   12.5380 H     440  INH440      0.1670
@<TRIPOS>BOND
     1    31    30    1
     2    30    28    1
     3    29    28    2
     4    28    27    1
     5    27    26    1
     6     1     3    2
     7    20    19    1
     8    19     3    1
     9    19    21    1
    10    26    21    1
    11     3     2    2
    12     3     4    1
    13    25    24    1
    14    13     4   ar
    15    13     9   ar
    16    21    22    1
    17     4     5   ar
    18    24    22    1
    19    12     9   ar
    20    12    11   ar
    21    22    23    2
    22     9     7   ar
    23    11    10   ar
    24     5     6   ar
    25     7     6   ar
    26     7     8   ar
    27    10     8   ar
    28    10    14    1
    29    14    15    1
    30    15    16    1
    31    16    17    1
    32    18    17    1
