@<TRIPOS>MOLECULE
./ligand/1xw6_lig.pdb
 36 35 0 0 0
SMALL
GASTEIGER

@<TRIPOS>ATOM
      1  N1         3.5960   17.5780   81.4570 N.4   439  INH439      0.2289
      2  H1         4.1310   16.7850   81.1330 H     439  INH439      0.2002
      3  H2         3.2760   18.1150   80.6630 H     439  INH439      0.2002
      4  H3         2.8000   17.2540   81.9870 H     439  INH439      0.2002
      5  C1         4.4360   18.4170   82.3050 C.3   439  INH439      0.0790
      6  H4         5.2820   18.7660   81.7130 H     439  INH439      0.0970
      7  C2         4.9830   17.6320   83.4820 C.2   439  INH439      0.4026
      8  O1         4.4250   16.5610   83.7640 O.co2 439  INH439     -0.2400
      9  O2         5.9790   18.0610   84.0930 O.co2 439  INH439     -0.2400
     10  C3         3.6370   19.6140   82.7960 C.3   439  INH439      0.0091
     11  H5         2.9980   19.2820   83.6140 H     439  INH439      0.0330
     12  H6         3.0180   19.9690   81.9720 H     439  INH439      0.0330
     13  C4         4.4710   20.7730   83.2910 C.3   439  INH439      0.0296
     14  H7         5.1950   21.0410   82.5220 H     439  INH439      0.0360
     15  H8         4.9980   20.4680   84.1950 H     439  INH439      0.0360
     16  C5         3.6220   21.9770   83.6030 C.2   439  INH439      0.2138
     17  O3         2.5090   22.1210   83.0930 O.2   439  INH439     -0.2758
     18  N2         4.1050   22.7990   84.5190 N.am  439  INH439     -0.3033
     19  H9         4.9950   22.5930   84.9510 H     439  INH439      0.1495
     20  C6         3.3800   23.9900   84.9140 C.3   439  INH439      0.1081
     21  H10        2.5070   24.0970   84.2710 H     439  INH439      0.0603
     22  C7         4.2470   25.2430   84.7390 C.2   439  INH439      0.2346
     23  O4         4.0400   26.2440   85.4110 O.2   439  INH439     -0.2737
     24  C8         2.9170   23.8540   86.3710 C.3   439  INH439      0.0177
     25  H11        2.4610   24.7990   86.6680 H     439  INH439      0.0397
     26  H12        3.7970   23.6660   86.9870 H     439  INH439      0.0397
     27  S1         1.7100   22.5210   86.6920 S.3   439  INH439     -0.1759
     28  H13        0.6170   22.7220   85.9510 H     439  INH439      0.1017
     29  N3         5.1870   25.2040   83.8080 N.am  439  INH439     -0.3031
     30  H14        5.2870   24.3600   83.2620 H     439  INH439      0.1493
     31  C9         6.0850   26.3170   83.5310 C.3   439  INH439      0.1133
     32  H15        7.0790   25.9070   83.3480 H     439  INH439      0.0579
     33  H16        6.1110   26.9530   84.4150 H     439  INH439      0.0579
     34  C10        5.7150   27.1830   82.3470 C.2   439  INH439      0.3727
     35  O5         4.5430   27.1640   81.9310 O.co2 439  INH439     -0.2446
     36  O6         6.5980   27.8930   81.8370 O.co2 439  INH439     -0.2446
@<TRIPOS>BOND
     1     1     5    1
     2     1     4    1
     3     1     3    1
     4     1     2    1
     5     5    10    1
     6     5     7    1
     7     5     6    1
     8     7     9   ar
     9     7     8   ar
    10    10    13    1
    11    10    12    1
    12    10    11    1
    13    13    16    1
    14    13    15    1
    15    13    14    1
    16    16    18   am
    17    16    17    2
    18    18    20    1
    19    18    19    1
    20    20    24    1
    21    20    22    1
    22    20    21    1
    23    22    29   am
    24    22    23    2
    25    24    27    1
    26    24    26    1
    27    24    25    1
    28    27    28    1
    29    29    31    1
    30    29    30    1
    31    31    34    1
    32    31    33    1
    33    31    32    1
    34    34    36   ar
    35    34    35   ar
