@<TRIPOS>MOLECULE
/tmp/ewbell/vina_1xw6_1xw6_lig/vina/vina3.pdbqt
 28 27 0 0 0
SMALL
GASTEIGER

@<TRIPOS>ATOM
      1  C5         4.4270   24.9460   77.5850 C.2   439  INH439      0.2180
      2  O3         4.2280   24.0670   76.7430 O.2   439  INH439     -0.2740
      3  N2         5.4190   25.8150   77.4960 N.am  439  INH439     -0.3470
      4  H9         5.5330   26.5140   78.2170 H     439  INH439      0.1630
      5  C6         6.3470   25.7820   76.3830 C.3   439  INH439      0.1850
      6  C8         6.0470   26.9420   75.4250 C.3   439  INH439      0.1050
      7  S1         5.1600   28.3600   76.1590 S.3   439  INH439     -0.1800
      8  H13        3.8700   28.0520   76.3050 H     439  INH439      0.1010
      9  C7         7.7980   25.8530   76.8760 C.2   439  INH439      0.2410
     10  N3         8.4860   24.7230   76.8980 N.am  439  INH439     -0.3490
     11  H14        9.4500   24.7530   77.1980 H     439  INH439      0.1630
     12  O4         8.2970   26.9240   77.1940 O.2   439  INH439     -0.2710
     13  C9         7.9230   23.4360   76.5110 C.3   439  INH439      0.2320
     14  C10        7.6340   22.4750   77.6440 C.2   439  INH439      0.1580
     15  O6         6.5090   21.9520   77.7000 O.2   439  INH439     -0.6490
     16  O5         8.5240   22.2500   78.4830 O.3   439  INH439     -0.7750
     17  H          9.1370   22.9220   78.7090 H     439  INH439      0.1670
     18  C4         3.4710   25.1590   78.7280 C.3   439  INH439      0.1050
     19  C3         2.5420   23.9810   78.9080 C.3   439  INH439      0.0530
     20  C1         2.9170   23.0410   80.0420 C.3   439  INH439      0.2800
     21  N1         3.9120   23.6760   80.9000 N.4   439  INH439     -0.0650
     22  H3         4.2920   22.9910   81.5380 H     439  INH439      0.2750
     23  H2         4.6550   24.0550   80.3300 H     439  INH439      0.2750
     24  H1         3.4770   24.4210   81.4260 H     439  INH439      0.2750
     25  C2         3.4320   21.7270   79.4870 C.2   439  INH439      0.1710
     26  O2         3.8680   20.8620   80.2690 O.2   439  INH439     -0.6480
     27  O1         3.4290   21.5860   78.2540 O.3   439  INH439     -0.7750
     28  H          3.5280   22.3340   77.6980 H     439  INH439      0.1670
@<TRIPOS>BOND
     1     6     7    1
     2     6     5    1
     3     7     8    1
     4     5     9    1
     5     5     3    1
     6    13    10    1
     7    13    14    1
     8     2     1    2
     9     9    10   am
    10     9    12    2
    11    10    11    1
    12     3     1   am
    13     3     4    1
    14     1    18    1
    15    14    15    2
    16    14    16    1
    17    28    27    1
    18    27    25    1
    19    16    17    1
    20    18    19    1
    21    19    20    1
    22    25    20    1
    23    25    26    2
    24    20    21    1
    25    23    21    1
    26    21    24    1
    27    21    22    1
