@<TRIPOS>MOLECULE
/tmp/ewbell/vina_1xw6_1xw6_lig/vina/vina5.pdbqt
 28 27 0 0 0
SMALL
GASTEIGER

@<TRIPOS>ATOM
      1  C5        -8.6370    9.2540   77.5940 C.2   439  INH439      0.2180
      2  O3        -7.6500    8.5400   77.7850 O.2   439  INH439     -0.2740
      3  N2        -8.6040   10.3410   76.8430 N.am  439  INH439     -0.3470
      4  H9        -9.4460   10.8870   76.7230 H     439  INH439      0.1630
      5  C6        -7.3820   10.7630   76.1890 C.3   439  INH439      0.1850
      6  C8        -7.6430   12.0380   75.3760 C.3   439  INH439      0.1050
      7  S1        -6.6480   12.2190   73.8550 S.3   439  INH439     -0.1800
      8  H13       -6.2810   13.4950   73.7130 H     439  INH439      0.1010
      9  C7        -6.2650   10.9980   77.2140 C.2   439  INH439      0.2410
     10  N3        -5.1130   10.3780   77.0080 N.am  439  INH439     -0.3490
     11  H14       -4.3590   10.5390   77.6590 H     439  INH439      0.1630
     12  O4        -6.4320   11.7610   78.1550 O.2   439  INH439     -0.2710
     13  C9        -4.8800    9.4760   75.8880 C.3   439  INH439      0.2320
     14  C10       -4.5890    8.0370   76.2510 C.2   439  INH439      0.1580
     15  O6        -3.7360    7.4220   75.5890 O.2   439  INH439     -0.6490
     16  O5        -5.2180    7.5140   77.1890 O.3   439  INH439     -0.7750
     17  H         -5.1020    6.6040   77.3810 H     439  INH439      0.1670
     18  C4        -9.9920    8.8650   78.1240 C.3   439  INH439      0.1050
     19  C3       -10.0770    9.0340   79.6230 C.3   439  INH439      0.0530
     20  C1        -9.8120    7.7690   80.4230 C.3   439  INH439      0.2800
     21  N1       -10.9260    7.5170   81.3310 N.4   439  INH439     -0.0650
     22  H3       -11.7430    7.2570   80.7980 H     439  INH439      0.2750
     23  H2       -10.6820    6.7670   81.9620 H     439  INH439      0.2750
     24  H1       -11.1220    8.3530   81.8630 H     439  INH439      0.2750
     25  C2        -8.5040    7.8910   81.1820 C.2   439  INH439      0.1710
     26  O2        -8.4790    8.5140   82.2600 O.2   439  INH439     -0.6480
     27  O1        -7.4940    7.3880   80.6660 O.3   439  INH439     -0.7750
     28  H         -7.4130    6.4560   80.6080 H     439  INH439      0.1670
@<TRIPOS>BOND
     1     8     7    1
     2     7     6    1
     3     6     5    1
     4    15    14    2
     5    13    14    1
     6    13    10    1
     7     5     3    1
     8     5     9    1
     9    14    16    1
    10     4     3    1
    11     3     1   am
    12    10     9   am
    13    10    11    1
    14    16    17    1
    15     9    12    2
    16     1     2    2
    17     1    18    1
    18    18    19    1
    19    19    20    1
    20    20    25    1
    21    20    21    1
    22    28    27    1
    23    27    25    1
    24    22    21    1
    25    25    26    2
    26    21    24    1
    27    21    23    1
