@<TRIPOS>MOLECULE
/tmp/ewbell/vina_1xw6_1xw6_lig/vina/vina2.pdbqt
 28 27 0 0 0
SMALL
GASTEIGER

@<TRIPOS>ATOM
      1  C5         3.3440   24.2000   85.8940 C.2   439  INH439      0.2180
      2  O3         4.5470   24.4550   85.9870 O.2   439  INH439     -0.2740
      3  N2         2.5580   24.7590   84.9900 N.am  439  INH439     -0.3470
      4  H9         1.5790   24.5100   84.9620 H     439  INH439      0.1630
      5  C6         3.0760   25.7220   84.0390 C.3   439  INH439      0.1850
      6  C8         1.9540   26.1690   83.0920 C.3   439  INH439      0.1050
      7  S1         2.4770   27.2220   81.6950 S.3   439  INH439     -0.1800
      8  H13        2.4650   28.5030   82.0730 H     439  INH439      0.1010
      9  C7         3.6860   26.9310   84.7600 C.2   439  INH439      0.2410
     10  N3         4.9740   27.1670   84.5650 N.am  439  INH439     -0.3490
     11  H14        5.3870   27.9710   85.0130 H     439  INH439      0.1630
     12  O4         2.9890   27.6620   85.4510 O.2   439  INH439     -0.2710
     13  C9         5.8240   26.3230   83.7360 C.3   439  INH439      0.2320
     14  C10        6.4220   26.9870   82.5160 C.2   439  INH439      0.1580
     15  O6         7.3210   26.3900   81.9000 O.2   439  INH439     -0.6490
     16  O5         6.0040   28.1080   82.1750 O.3   439  INH439     -0.7750
     17  H          6.0890   28.8370   82.7580 H     439  INH439      0.1670
     18  C4         2.7070   23.1350   86.7470 C.3   439  INH439      0.1050
     19  C3         1.2820   23.4870   87.1100 C.3   439  INH439      0.0530
     20  C1         1.1410   24.4320   88.2920 C.3   439  INH439      0.2800
     21  N1         0.2940   23.8230   89.3120 N.4   439  INH439     -0.0650
     22  H3         0.8430   23.1850   89.8690 H     439  INH439      0.2750
     23  H2        -0.0890   24.5450   89.9060 H     439  INH439      0.2750
     24  H1        -0.4600   23.3190   88.8660 H     439  INH439      0.2750
     25  C2         0.5770   25.7640   87.8350 C.2   439  INH439      0.1710
     26  O2        -0.6570   25.9060   87.7430 O.2   439  INH439     -0.6480
     27  O1         1.3860   26.6550   87.5340 O.3   439  INH439     -0.7750
     28  H          1.7890   26.6550   86.6880 H     439  INH439      0.1670
@<TRIPOS>BOND
     1     7     8    1
     2     7     6    1
     3    15    14    2
     4    16    14    1
     5    16    17    1
     6    14    13    1
     7     6     5    1
     8    13    10    1
     9     5     9    1
    10     5     3    1
    11    10     9   am
    12    10    11    1
    13     9    12    2
    14     4     3    1
    15     3     1   am
    16     1     2    2
    17     1    18    1
    18    28    27    1
    19    18    19    1
    20    19    20    1
    21    27    25    1
    22    26    25    2
    23    25    20    1
    24    20    21    1
    25    24    21    1
    26    21    22    1
    27    21    23    1
