@<TRIPOS>MOLECULE
/tmp/ewbell/vina_1xw6_1xw6_lig/vina/vina1.pdbqt
 28 27 0 0 0
SMALL
GASTEIGER

@<TRIPOS>ATOM
      1  C5         3.5560   22.8140   80.4690 C.2   439  INH439      0.2180
      2  O3         3.2590   22.3060   79.3860 O.2   439  INH439     -0.2740
      3  N2         4.2360   23.9430   80.5700 N.am  439  INH439     -0.3470
      4  H9         4.4520   24.3120   81.4860 H     439  INH439      0.1630
      5  C6         4.6780   24.6600   79.3910 C.3   439  INH439      0.1850
      6  C8         3.7600   25.8660   79.1450 C.3   439  INH439      0.1050
      7  S1         4.0560   26.7750   77.5890 S.3   439  INH439     -0.1800
      8  H13        4.6080   25.9550   76.6910 H     439  INH439      0.1010
      9  C7         6.1350   25.1160   79.5400 C.2   439  INH439      0.2410
     10  N3         7.0430   24.4930   78.8050 N.am  439  INH439     -0.3490
     11  H14        8.0040   24.7940   78.8710 H     439  INH439      0.1630
     12  O4         6.4260   26.0450   80.2810 O.2   439  INH439     -0.2710
     13  C9         6.7240   23.3940   77.9030 C.3   439  INH439      0.2320
     14  C10        7.8840   22.5090   77.5060 C.2   439  INH439      0.1580
     15  O6         8.3150   22.5870   76.3430 O.2   439  INH439     -0.6490
     16  O5         8.3610   21.7280   78.3490 O.3   439  INH439     -0.7750
     17  H          9.1230   21.9730   78.8360 H     439  INH439      0.1670
     18  C4         3.0610   22.2290   81.7650 C.3   439  INH439      0.1050
     19  C3         2.9500   20.7240   81.6940 C.3   439  INH439      0.0530
     20  C1         3.6810   19.9770   82.7970 C.3   439  INH439      0.2800
     21  N1         4.4930   20.9110   83.5700 N.4   439  INH439     -0.0650
     22  H3         3.9870   21.1890   84.3990 H     439  INH439      0.2750
     23  H2         5.3580   20.4640   83.8370 H     439  INH439      0.2750
     24  H1         4.6940   21.7260   83.0090 H     439  INH439      0.2750
     25  C2         4.5340   18.8700   82.2060 C.2   439  INH439      0.1710
     26  O2         5.7690   19.0160   82.1460 O.2   439  INH439     -0.6480
     27  O1         3.9480   17.8680   81.7690 O.3   439  INH439     -0.7750
     28  H          4.2650   17.4410   80.9970 H     439  INH439      0.1670
@<TRIPOS>BOND
     1    15    14    2
     2     8     7    1
     3    14    13    1
     4    14    16    1
     5     7     6    1
     6    13    10    1
     7    16    17    1
     8    10    11    1
     9    10     9   am
    10     6     5    1
    11     2     1    2
    12     5     9    1
    13     5     3    1
    14     9    12    2
    15     1     3   am
    16     1    18    1
    17     3     4    1
    18    28    27    1
    19    19    18    1
    20    19    20    1
    21    27    25    1
    22    26    25    2
    23    25    20    1
    24    20    21    1
    25    24    21    1
    26    21    23    1
    27    21    22    1
