@<TRIPOS>MOLECULE
/tmp/ewbell/vina_1xw6_1xw6_lig/vina/vina4.pdbqt
 28 27 0 0 0
SMALL
GASTEIGER

@<TRIPOS>ATOM
      1  C5         5.1490   24.8740   74.7730 C.2   439  INH439      0.2180
      2  O3         4.3000   23.9870   74.6560 O.2   439  INH439     -0.2740
      3  N2         4.8690   26.0800   75.2370 N.am  439  INH439     -0.3470
      4  H9         5.6070   26.7670   75.3110 H     439  INH439      0.1630
      5  C6         3.5240   26.4340   75.6410 C.3   439  INH439      0.1850
      6  C8         3.5550   27.0820   77.0320 C.3   439  INH439      0.1050
      7  S1         2.9580   26.0320   78.4030 S.3   439  INH439     -0.1800
      8  H13        3.1080   24.7460   78.0770 H     439  INH439      0.1010
      9  C7         2.8750   27.3790   74.6210 C.2   439  INH439      0.2410
     10  N3         1.6130   27.1470   74.2970 N.am  439  INH439     -0.3490
     11  H14        1.1620   27.7720   73.6450 H     439  INH439      0.1630
     12  O4         3.4990   28.3280   74.1660 O.2   439  INH439     -0.2710
     13  C9         0.8420   26.0340   74.8340 C.3   439  INH439      0.2320
     14  C10       -0.4990   25.7850   74.1790 C.2   439  INH439      0.1580
     15  O6        -0.6150   26.0190   72.9650 O.2   439  INH439     -0.6490
     16  O5        -1.4400   25.3640   74.8760 O.3   439  INH439     -0.7750
     17  H         -2.2210   25.0460   74.4670 H     439  INH439      0.1670
     18  C4         6.6040   24.6010   74.4950 C.3   439  INH439      0.1050
     19  C3         7.1450   23.5010   75.3790 C.3   439  INH439      0.0530
     20  C1         7.3360   23.8890   76.8360 C.3   439  INH439      0.2800
     21  N1         8.5150   24.7390   76.9690 N.4   439  INH439     -0.0650
     22  H3         8.5070   25.4410   76.2440 H     439  INH439      0.2750
     23  H2         8.5050   25.1880   77.8740 H     439  INH439      0.2750
     24  H1         9.3480   24.1740   76.8820 H     439  INH439      0.2750
     25  C2         7.4560   22.6470   77.6990 C.2   439  INH439      0.1710
     26  O2         6.5150   21.8320   77.7320 O.2   439  INH439     -0.6480
     27  O1         8.4890   22.5160   78.3730 O.3   439  INH439     -0.7750
     28  H          8.9360   21.6930   78.3890 H     439  INH439      0.1670
@<TRIPOS>BOND
     1    15    14    2
     2    11    10    1
     3    12     9    2
     4    14    13    1
     5    14    16    1
     6    10     9   am
     7    10    13    1
     8    17    16    1
     9    18     1    1
    10    18    19    1
    11     9     5    1
    12     2     1    2
    13     1     3   am
    14     3     4    1
    15     3     5    1
    16    19    20    1
    17     5     6    1
    18    22    21    1
    19    20    21    1
    20    20    25    1
    21    24    21    1
    22    21    23    1
    23     6     7    1
    24    25    26    2
    25    25    27    1
    26     8     7    1
    27    27    28    1
