@<TRIPOS>MOLECULE
./ligand/2otz_lig.pdb
 17 17 0 0 0
SMALL
GASTEIGER

@<TRIPOS>ATOM
      1  C1        37.7040  -26.9060  -10.4710 C.ar  165  INH165     -0.0616
      2  C2        37.1540  -25.7050  -10.0340 C.ar  165  INH165     -0.0600
      3  C3        38.1440  -27.0470  -11.7890 C.ar  165  INH165     -0.0600
      4  C4        37.0410  -24.6360  -10.9210 C.ar  165  INH165     -0.0409
      5  C5        38.0320  -25.9780  -12.6760 C.ar  165  INH165     -0.0409
      6  C6        37.4740  -24.7710  -12.2430 C.ar  165  INH165      0.0269
      7  C7        37.1370  -23.9260  -14.5190 C.3   165  INH165     -0.0024
      8  N1        37.3590  -23.7330  -13.0750 N.pl3 165  INH165     -0.3469
      9  H1        37.7910  -27.7360   -9.7850 H     165  INH165      0.0618
     10  H2        36.8170  -25.6020   -9.0130 H     165  INH165      0.0618
     11  H3        38.5700  -27.9830  -12.1200 H     165  INH165      0.0618
     12  H4        36.6180  -23.7010  -10.5860 H     165  INH165      0.0636
     13  H5        38.3750  -26.0810  -13.6950 H     165  INH165      0.0636
     14  H6        36.0570  -23.9730  -14.7220 H     165  INH165      0.0425
     15  H7        37.5760  -23.0830  -15.0730 H     165  INH165      0.0425
     16  H8        37.6120  -24.8640  -14.8430 H     165  INH165      0.0425
     17  H9        37.3720  -22.7840  -12.7240 H     165  INH165      0.1457
@<TRIPOS>BOND
     1     1     9    1
     2     1     3   ar
     3     1     2   ar
     4     2    10    1
     5     2     4   ar
     6     3     5   ar
     7     3    11    1
     8     4    12    1
     9     4     6   ar
    10     5     6   ar
    11     5    13    1
    12     6     8    1
    13     7     8    1
    14     7    16    1
    15     7    15    1
    16     7    14    1
    17     8    17    1
