@<TRIPOS>MOLECULE
/tmp/ewbell/vina_2otz_2otz_lig/vina/vina2.pdbqt
 9 9 0 0 0
SMALL
GASTEIGER

@<TRIPOS>ATOM
      1  C1        36.8610  -25.6390   -9.6320 C.ar  165  INH165      0.0000
      2  C2        36.8100  -24.7810  -10.7260 C.ar  165  INH165      0.0020
      3  C3        37.5280  -26.8620   -9.7200 C.ar  165  INH165      0.0020
      4  C4        37.4300  -25.1480  -11.9190 C.ar  165  INH165      0.0290
      5  C5        38.1490  -27.2300  -10.9120 C.ar  165  INH165      0.0290
      6  C6        38.0950  -26.3740  -12.0160 C.ar  165  INH165      0.0270
      7  N1        38.6850  -26.7040  -13.1680 N.pl3 165  INH165     -0.3940
      8  C7        38.7850  -25.7460  -14.2830 C.3   165  INH165      0.1460
      9  H9        39.1220  -27.6090  -13.2840 H     165  INH165      0.1590
@<TRIPOS>BOND
     1     8     7    1
     2     9     7    1
     3     7     6    1
     4     6     4   ar
     5     6     5   ar
     6     4     2   ar
     7     5     3   ar
     8     2     1   ar
     9     3     1   ar
