@<TRIPOS>MOLECULE
/tmp/ewbell/vina_2otz_2otz_lig/vina/vina5.pdbqt
 9 9 0 0 0
SMALL
GASTEIGER

@<TRIPOS>ATOM
      1  C1        41.8530  -13.8320  -22.2990 C.ar  165  INH165      0.0000
      2  C2        42.5200  -14.6250  -23.2280 C.ar  165  INH165      0.0020
      3  C3        40.4580  -13.8140  -22.2530 C.ar  165  INH165      0.0020
      4  C4        41.7860  -15.4040  -24.1210 C.ar  165  INH165      0.0290
      5  C5        39.7240  -14.5930  -23.1460 C.ar  165  INH165      0.0290
      6  C6        40.3890  -15.3860  -24.0860 C.ar  165  INH165      0.0270
      7  N1        39.7070  -16.1420  -24.9490 N.pl3 165  INH165     -0.3940
      8  C7        40.2860  -16.5450  -26.2430 C.3   165  INH165      0.1460
      9  H9        38.7910  -16.5000  -24.7120 H     165  INH165      0.1590
@<TRIPOS>BOND
     1     8     7    1
     2     7     9    1
     3     7     6    1
     4     4     6   ar
     5     4     2   ar
     6     6     5   ar
     7     2     1   ar
     8     5     3   ar
     9     1     3   ar
