@<TRIPOS>MOLECULE
/tmp/ewbell/vina_2otz_2otz_lig/vina/vina3.pdbqt
 9 9 0 0 0
SMALL
GASTEIGER

@<TRIPOS>ATOM
      1  C1        33.6050  -15.7400   -0.0640 C.ar  165  INH165      0.0000
      2  C2        34.5500  -16.1740   -0.9880 C.ar  165  INH165      0.0020
      3  C3        33.0490  -16.6340    0.8550 C.ar  165  INH165      0.0020
      4  C4        34.9420  -17.5110   -0.9970 C.ar  165  INH165      0.0290
      5  C5        33.4420  -17.9710    0.8470 C.ar  165  INH165      0.0290
      6  C6        34.3870  -18.4120   -0.0840 C.ar  165  INH165      0.0270
      7  N1        34.7790  -19.6880   -0.1080 N.pl3 165  INH165     -0.3940
      8  C7        33.9090  -20.7500   -0.6450 C.3   165  INH165      0.1460
      9  H9        35.7080  -19.9500    0.1970 H     165  INH165      0.1590
@<TRIPOS>BOND
     1     4     2   ar
     2     4     6   ar
     3     2     1   ar
     4     8     7    1
     5     7     6    1
     6     7     9    1
     7     6     5   ar
     8     1     3   ar
     9     5     3   ar
