@<TRIPOS>MOLECULE
/tmp/ewbell/vina_2otz_2otz_lig/vina/vina4.pdbqt
 9 9 0 0 0
SMALL
GASTEIGER

@<TRIPOS>ATOM
      1  C1        34.0400  -20.7070   -0.5080 C.ar  165  INH165      0.0000
      2  C2        34.2360  -19.7340    0.4670 C.ar  165  INH165      0.0020
      3  C3        34.0450  -20.3660   -1.8620 C.ar  165  INH165      0.0020
      4  C4        34.4380  -18.4080    0.0860 C.ar  165  INH165      0.0290
      5  C5        34.2470  -19.0410   -2.2440 C.ar  165  INH165      0.0290
      6  C6        34.4380  -18.0580   -1.2670 C.ar  165  INH165      0.0270
      7  N1        34.6360  -16.7830   -1.6100 N.pl3 165  INH165     -0.3940
      8  C7        34.4310  -15.6870   -0.6450 C.3   165  INH165      0.1460
      9  H9        34.9800  -16.5410   -2.5300 H     165  INH165      0.1590
@<TRIPOS>BOND
     1     9     7    1
     2     5     3   ar
     3     5     6   ar
     4     3     1   ar
     5     7     6    1
     6     7     8    1
     7     6     4   ar
     8     1     2   ar
     9     4     2   ar
