@<TRIPOS>MOLECULE
/tmp/ewbell/vina_2otz_2otz_lig/vina/vina1.pdbqt
 9 9 0 0 0
SMALL
GASTEIGER

@<TRIPOS>ATOM
      1  C1        37.7920  -27.2280  -10.4910 C.ar  165  INH165      0.0000
      2  C2        37.1550  -26.0790  -10.0310 C.ar  165  INH165      0.0020
      3  C3        38.3110  -27.2800  -11.7860 C.ar  165  INH165      0.0020
      4  C4        37.0360  -24.9740  -10.8710 C.ar  165  INH165      0.0290
      5  C5        38.1930  -26.1750  -12.6270 C.ar  165  INH165      0.0290
      6  C6        37.5490  -25.0210  -12.1700 C.ar  165  INH165      0.0270
      7  N1        37.4260  -23.9490  -12.9580 N.pl3 165  INH165     -0.3940
      8  C7        37.1000  -24.0800  -14.3890 C.3   165  INH165      0.1460
      9  H9        37.5060  -23.0150  -12.5770 H     165  INH165      0.1590
@<TRIPOS>BOND
     1     8     7    1
     2     7     9    1
     3     7     6    1
     4     5     6   ar
     5     5     3   ar
     6     6     4   ar
     7     3     1   ar
     8     4     2   ar
     9     1     2   ar
