@<TRIPOS>MOLECULE
./ligand/2cem_lig.pdb
 96 100 0 0 0
SMALL
GASTEIGER

@<TRIPOS>ATOM
      1  C1        14.1700   23.0120    5.5050 C.3   203  INH203      0.1857
      2  C2        14.5110   21.4910    5.2910 C.2   203  INH203      0.2510
      3  O1        13.5950   20.6500    5.2550 O.2   203  INH203     -0.2724
      4  N1        15.7910   21.0870    5.1640 N.am  203  INH203     -0.3034
      5  C3        16.1520   19.6710    4.9760 C.3   203  INH203      0.0749
      6  C4        16.1360   19.1610    3.5630 C.ar  203  INH203     -0.0215
      7  C5        15.2830   19.5320    2.4720 C.ar  203  INH203     -0.0565
      8  C6        15.4860   18.8810    1.2090 C.ar  203  INH203     -0.0614
      9  C7        16.5120   17.8900    1.0590 C.ar  203  INH203     -0.0615
     10  C8        17.3540   17.5290    2.1640 C.ar  203  INH203     -0.0582
     11  C9        17.1400   18.1880    3.4090 C.ar  203  INH203     -0.0398
     12  C10       17.8920   17.9870    4.7040 C.3   203  INH203      0.0008
     13  C11       17.5680   19.2780    5.4960 C.3   203  INH203      0.0816
     14  O2        18.5520   20.2300    5.1140 O.3   203  INH203     -0.3893
     15  C12       13.9170   23.3220    7.0150 C.3   203  INH203      0.0150
     16  C13       14.8160   22.6240    8.0270 C.ar  203  INH203     -0.0440
     17  C14       14.3030   21.5170    8.7960 C.ar  203  INH203     -0.0585
     18  C15       15.1370   20.8470    9.7380 C.ar  203  INH203     -0.0615
     19  C16       16.4910   21.2770    9.9200 C.ar  203  INH203     -0.0617
     20  C17       17.0070   22.3760    9.1590 C.ar  203  INH203     -0.0615
     21  C18       16.1710   23.0510    8.2130 C.ar  203  INH203     -0.0585
     22  O3        15.2390   23.8640    5.1170 O.3   203  INH203     -0.3746
     23  C19       12.9050   23.0300    4.5760 C.3   203  INH203      0.0273
     24  N2        11.9580   24.0570    4.2140 N.4   203  INH203      0.3591
     25  N3        11.3060   24.8080    5.1770 N.am  203  INH203     -0.2809
     26  C20       11.3830   23.6150    2.9110 C.3   203  INH203      0.0145
     27  C21       10.4630   24.5590    6.2070 C.2   203  INH203      0.2681
     28  O4        10.3010   23.4280    6.7000 O.2   203  INH203     -0.2694
     29  C22        9.6980   25.7940    6.7430 C.3   203  INH203      0.1114
     30  C23        9.6640   26.0380    8.2970 C.3   203  INH203     -0.0105
     31  C24        8.9080   27.3360    8.6760 C.3   203  INH203     -0.0579
     32  C25       11.0650   26.1420    8.9260 C.3   203  INH203     -0.0579
     33  N4         8.3140   25.7110    6.2350 N.am  203  INH203     -0.2692
     34  C26        7.6990   26.6060    5.4450 C.2   203  INH203      0.4006
     35  O5         8.3060   27.6300    5.0760 O.2   203  INH203     -0.2265
     36  O6         6.4180   26.3340    5.0850 O.3   203  INH203     -0.4537
     37  C27        9.8760   23.4420    2.9570 C.ar  203  INH203     -0.0023
     38  C28        9.0330   24.4590    2.4050 C.ar  203  INH203     -0.0529
     39  C29        7.6070   24.3290    2.4660 C.ar  203  INH203     -0.0521
     40  C30        7.0140   23.1780    3.0890 C.ar  203  INH203      0.0004
     41  C31        9.2900   22.2870    3.5650 C.ar  203  INH203     -0.0529
     42  C32        7.8670   22.1590    3.6300 C.ar  203  INH203     -0.0521
     43  C33        5.6620   27.2080    4.2510 C.3   203  INH203      0.0833
     44  C34        8.9020   24.9000    8.9810 C.3   203  INH203     -0.0579
     45  C35        2.6720   22.8880    3.3260 C.ar  203  INH203     -0.0436
     46  C36        3.4910   21.8610    3.8780 C.ar  203  INH203     -0.0583
     47  C37        4.9130   21.9390    3.8060 C.ar  203  INH203     -0.0357
     48  C38        5.5330   23.0630    3.1720 C.ar  203  INH203      0.0710
     49  N5         4.7030   24.0880    2.6230 N.ar  203  INH203     -0.2550
     50  C39        3.2790   24.0040    2.6960 C.ar  203  INH203      0.0283
     51  H1        16.5200   21.7710    5.1990 H     203  INH203      0.1495
     52  H2        15.4080   19.0970    5.5480 H     203  INH203      0.0574
     53  H3        14.5090   20.2810    2.5970 H     203  INH203      0.0621
     54  H4        14.8600   19.1400    0.3630 H     203  INH203      0.0618
     55  H5        16.6530   17.4070    0.0990 H     203  INH203      0.0618
     56  H6        18.1280   16.7780    2.0550 H     203  INH203      0.0620
     57  H7        18.9730   17.8940    4.5240 H     203  INH203      0.0339
     58  H8        17.5310   17.0950    5.2370 H     203  INH203      0.0339
     59  H9        17.5710   19.1220    6.5850 H     203  INH203      0.0618
     60  H10       18.3970   21.0460    5.5750 H     203  INH203      0.2099
     61  H11       12.8790   23.0370    7.2420 H     203  INH203      0.0348
     62  H12       14.0390   24.4060    7.1560 H     203  INH203      0.0348
     63  H13       13.2780   21.1930    8.6570 H     203  INH203      0.0620
     64  H14       14.7480   20.0150   10.3140 H     203  INH203      0.0618
     65  H15       17.1280   20.7690   10.6360 H     203  INH203      0.0618
     66  H16       18.0330   22.6970    9.3000 H     203  INH203      0.0618
     67  H17       16.5620   23.8830    7.6390 H     203  INH203      0.0620
     68  H18       15.4400   23.7200    4.2000 H     203  INH203      0.2110
     69  H19       12.2690   22.2400    5.0010 H     203  INH203      0.0854
     70  H20       13.3010   22.6990    3.6050 H     203  INH203      0.0854
     71  H21       12.5790   24.7830    3.8930 H     203  INH203      0.2259
     72  H22       11.5090   25.7830    5.0900 H     203  INH203      0.2003
     73  H23       11.8380   22.6520    2.6350 H     203  INH203      0.0873
     74  H24       11.6260   24.3680    2.1470 H     203  INH203      0.0873
     75  H25       10.1800   26.6790    6.3020 H     203  INH203      0.0602
     76  H26        8.9140   27.4580    9.7690 H     203  INH203      0.0236
     77  H27        7.8690   27.2730    8.3200 H     203  INH203      0.0236
     78  H28        9.4040   28.1990    8.2080 H     203  INH203      0.0236
     79  H29       11.6440   25.2390    8.6840 H     203  INH203      0.0236
     80  H30       10.9710   26.2350   10.0180 H     203  INH203      0.0236
     81  H31       11.5820   27.0270    8.5260 H     203  INH203      0.0236
     82  H32        7.7820   24.9090    6.5060 H     203  INH203      0.1528
     83  H33        9.4760   25.3320    1.9390 H     203  INH203      0.0622
     84  H34        6.9750   25.1000    2.0410 H     203  INH203      0.0624
     85  H35        9.9240   21.5100    3.9760 H     203  INH203      0.0622
     86  H36        7.4280   21.2830    4.0930 H     203  INH203      0.0624
     87  H37        4.6580   26.7870    4.0940 H     203  INH203      0.0661
     88  H38        6.1690   27.3190    3.2810 H     203  INH203      0.0661
     89  H39        5.5750   28.1920    4.7340 H     203  INH203      0.0661
     90  H40        7.8980   24.8150    8.5400 H     203  INH203      0.0236
     91  H41        8.8140   25.1120   10.0570 H     203  INH203      0.0236
     92  H42        9.4470   23.9550    8.8370 H     203  INH203      0.0236
     93  H43        1.5920   22.8170    3.3870 H     203  INH203      0.0633
     94  H44        3.0260   21.0080    4.3600 H     203  INH203      0.0619
     95  H45        5.5230   21.1490    4.2300 H     203  INH203      0.0639
     96  H46        2.6650   24.7900    2.2720 H     203  INH203      0.0830
@<TRIPOS>BOND
     1     1    23    1
     2     1    22    1
     3     1    15    1
     4     1     2    1
     5     2     4   am
     6     2     3    2
     7     4    51    1
     8     4     5    1
     9     5    52    1
    10     5    13    1
    11     5     6    1
    12     6    11   ar
    13     6     7   ar
    14     7    53    1
    15     7     8   ar
    16     8    54    1
    17     8     9   ar
    18     9    55    1
    19     9    10   ar
    20    10    56    1
    21    10    11   ar
    22    11    12    1
    23    12    58    1
    24    12    57    1
    25    12    13    1
    26    13    59    1
    27    13    14    1
    28    14    60    1
    29    15    62    1
    30    15    61    1
    31    15    16    1
    32    16    21   ar
    33    16    17   ar
    34    17    63    1
    35    17    18   ar
    36    18    64    1
    37    18    19   ar
    38    19    65    1
    39    19    20   ar
    40    20    66    1
    41    20    21   ar
    42    21    67    1
    43    22    68    1
    44    23    24    1
    45    23    70    1
    46    23    69    1
    47    24    26    1
    48    24    71    1
    49    24    25    1
    50    25    72    1
    51    25    27   am
    52    26    37    1
    53    26    74    1
    54    26    73    1
    55    27    29    1
    56    27    28    2
    57    29    75    1
    58    29    33    1
    59    29    30    1
    60    30    44    1
    61    30    32    1
    62    30    31    1
    63    31    78    1
    64    31    77    1
    65    31    76    1
    66    32    81    1
    67    32    80    1
    68    32    79    1
    69    33    82    1
    70    33    34   am
    71    34    36    1
    72    34    35    2
    73    36    43    1
    74    37    38   ar
    75    37    41   ar
    76    38    39   ar
    77    38    83    1
    78    39    40   ar
    79    39    84    1
    80    40    48    1
    81    40    42   ar
    82    41    85    1
    83    41    42   ar
    84    42    86    1
    85    43    89    1
    86    43    88    1
    87    43    87    1
    88    44    92    1
    89    44    91    1
    90    44    90    1
    91    45    93    1
    92    45    50   ar
    93    45    46   ar
    94    46    94    1
    95    46    47   ar
    96    47    95    1
    97    47    48   ar
    98    48    49   ar
    99    49    50   ar
   100    50    96    1
