@<TRIPOS>MOLECULE
/tmp/ewbell/vina_2cem_2cem_lig/vina/vina4.pdbqt
 57 61 0 0 0
SMALL
GASTEIGER

@<TRIPOS>ATOM
      1  N2        14.7690   21.9300    6.2030 N.4   203  INH203      0.0180
      2  H21       15.2460   22.0670    5.3260 H     203  INH203      0.3090
      3  C19       13.8610   23.0510    6.1980 C.3   203  INH203      0.3100
      4  C1        13.0250   23.7530    5.0700 C.3   203  INH203      0.1680
      5  O3        13.5390   24.9860    4.5890 O.3   203  INH203     -0.3780
      6  H18       13.2600   25.6900    5.1620 H     203  INH203      0.2110
      7  C12       12.7360   22.8960    3.7960 C.3   203  INH203      0.0880
      8  C13       11.3090   22.9050    3.2630 C.ar  203  INH203     -0.0550
      9  C18       10.8140   24.0300    2.5270 C.ar  203  INH203      0.0070
     10  C17        9.4670   24.0290    2.0430 C.ar  203  INH203      0.0010
     11  C16        8.6130   22.9050    2.2930 C.ar  203  INH203      0.0000
     12  C15        9.1040   21.7770    3.0280 C.ar  203  INH203      0.0010
     13  C14       10.4450   21.7770    3.5110 C.ar  203  INH203      0.0070
     14  C2        11.7190   23.9440    5.9270 C.2   203  INH203      0.2550
     15  N1        10.9890   25.0740    5.8210 N.am  203  INH203     -0.3470
     16  H1        11.2990   25.7930    5.1990 H     203  INH203      0.1630
     17  O1        11.3450   23.0410    6.6970 O.2   203  INH203     -0.2700
     18  C3         9.7520   25.2830    6.5910 C.3   203  INH203      0.1470
     19  C11        8.6190   26.0360    5.8270 C.3   203  INH203      0.1490
     20  C10        7.7330   26.5950    6.9660 C.3   203  INH203      0.0730
     21  C9         8.7200   26.8060    8.0910 C.ar  203  INH203     -0.0470
     22  C4         9.8870   26.0510    7.8750 C.ar  203  INH203     -0.0270
     23  C8         8.5700   27.6340    9.2400 C.ar  203  INH203      0.0080
     24  C5        10.9770   26.0820    8.8050 C.ar  203  INH203      0.0100
     25  C6        10.8460   26.9130    9.9680 C.ar  203  INH203      0.0010
     26  C7         9.6540   27.6810   10.1810 C.ar  203  INH203      0.0010
     27  O2         9.1200   27.1680    5.1290 O.3   203  INH203     -0.3930
     28  H10        8.7630   27.1770    4.2470 H     203  INH203      0.2100
     29  C20       15.8550   22.3130    7.1500 C.3   203  INH203      0.3010
     30  C27       16.2080   21.2050    8.1260 C.ar  203  INH203     -0.0300
     31  C28       17.5590   20.7400    8.2040 C.ar  203  INH203      0.0100
     32  C29       17.9070   19.6740    9.0980 C.ar  203  INH203      0.0140
     33  C30       16.8970   19.0610    9.9160 C.ar  203  INH203     -0.0090
     34  C32       15.5480   19.5420    9.8380 C.ar  203  INH203      0.0140
     35  C31       15.2020   20.6090    8.9500 C.ar  203  INH203      0.0100
     36  C38       17.2600   17.9380   10.8210 C.3   203  INH203      0.0420
     37  C37       16.4130   16.7910   10.9540 C.2   203  INH203      0.0300
     38  C36       16.7920   15.7260   11.8230 C.2   203  INH203      0.0040
     39  C35       18.0060   15.7850   12.5680 C.2   203  INH203      0.0170
     40  C39       18.8500   16.9180   12.4410 C.2   203  INH203      0.0880
     41  N5        18.4760   17.9860   11.5710 N.pl3 203  INH203     -0.3650
     42  H5        19.0880   18.7970   11.4820 H     203  INH203      0.1650
     43  N3        14.3260   20.6420    5.9530 N.am  203  INH203     -0.1840
     44  H22       13.6830   20.3270    6.6510 H     203  INH203      0.1970
     45  C21       14.5410   19.7010    5.0040 C.2   203  INH203      0.2650
     46  O4        13.9860   18.5870    5.0070 O.2   203  INH203     -0.2690
     47  C22       15.5410   20.1050    3.8920 C.3   203  INH203      0.1880
     48  N4        16.8320   20.3980    4.5450 N.am  203  INH203     -0.3230
     49  H32       17.1050   21.3590    4.5930 H     203  INH203      0.1650
     50  C26       17.6760   19.5030    5.0810 C.2   203  INH203      0.3600
     51  O5        18.8740   19.8040    5.2540 O.2   203  INH203     -0.2390
     52  O6        17.1620   18.2900    5.4120 O.3   203  INH203     -0.3090
     53  C33       17.9670   17.1160    5.4760 C.3   203  INH203      0.2150
     54  C23       15.7790   19.1060    2.7000 C.3   203  INH203     -0.0220
     55  C34       14.9640   19.5510    1.4830 C.3   203  INH203      0.0170
     56  C25       17.2580   18.9950    2.2890 C.3   203  INH203      0.0170
     57  C24       15.2970   17.6700    3.0250 C.3   203  INH203      0.0170
@<TRIPOS>BOND
     1    55    54    1
     2    10    11   ar
     3    10     9   ar
     4    56    54    1
     5    11    12   ar
     6     9     8   ar
     7    54    57    1
     8    54    47    1
     9    12    13   ar
    10     8    13   ar
    11     8     7    1
    12     7     4    1
    13    47    48    1
    14    47    45    1
    15    28    27    1
    16    48    49    1
    17    48    50   am
    18     5     4    1
    19     5     6    1
    20    45    46    2
    21    45    43   am
    22     4    14    1
    23     4     3    1
    24    50    51    2
    25    50    52    1
    26    27    19    1
    27    16    15    1
    28     2     1    1
    29    52    53    1
    30    15    14   am
    31    15    18    1
    32    19    18    1
    33    19    20    1
    34    14    17    2
    35    43     1    1
    36    43    44    1
    37     3     1    1
    38     1    29    1
    39    18    22    1
    40    20    21    1
    41    29    30    1
    42    22    21   ar
    43    22    24   ar
    44    21    23   ar
    45    30    31   ar
    46    30    35   ar
    47    31    32   ar
    48    24    25   ar
    49    35    34   ar
    50    32    33   ar
    51    23    26   ar
    52    34    33   ar
    53    33    36    1
    54    25    26   ar
    55    36    37    1
    56    36    41    1
    57    37    38    2
    58    42    41    1
    59    41    40    1
    60    38    39    1
    61    40    39    2
