@<TRIPOS>MOLECULE
/tmp/ewbell/vina_2cem_2cem_lig/vina/vina2.pdbqt
 57 61 0 0 0
SMALL
GASTEIGER

@<TRIPOS>ATOM
      1  N2         6.0460   23.8150    3.1480 N.4   203  INH203      0.0180
      2  H21        5.3280   24.3130    2.6470 H     203  INH203      0.3090
      3  C19        6.7140   24.9040    3.8190 C.3   203  INH203      0.3100
      4  C1         6.2230   26.2870    4.3760 C.3   203  INH203      0.1680
      5  O3         5.7970   27.2330    3.4070 O.3   203  INH203     -0.3780
      6  H18        6.3250   27.1410    2.6230 H     203  INH203      0.2110
      7  C12        5.0790   26.2330    5.4380 C.3   203  INH203      0.0880
      8  C13        4.4070   27.5500    5.8020 C.ar  203  INH203     -0.0550
      9  C18        4.9230   28.3600    6.8660 C.ar  203  INH203      0.0070
     10  C17        4.2730   29.5900    7.2040 C.ar  203  INH203      0.0010
     11  C16        3.1110   30.0130    6.4800 C.ar  203  INH203      0.0000
     12  C15        2.5930   29.2070    5.4150 C.ar  203  INH203      0.0010
     13  C14        3.2380   27.9810    5.0770 C.ar  203  INH203      0.0070
     14  C2         7.5910   26.6910    5.0430 C.2   203  INH203      0.2550
     15  N1         8.3000   25.7880    5.7520 N.am  203  INH203     -0.3470
     16  H1         7.9360   24.8630    5.8590 H     203  INH203      0.1630
     17  O1         8.0330   27.8450    4.9010 O.2   203  INH203     -0.2700
     18  C3         9.5920   26.1210    6.3740 C.3   203  INH203      0.1470
     19  C11       10.6130   24.9440    6.4420 C.3   203  INH203      0.1490
     20  C10       11.5750   25.3710    7.5770 C.3   203  INH203      0.0730
     21  C9        10.6870   26.1980    8.4790 C.ar  203  INH203     -0.0470
     22  C4         9.5410   26.6300    7.7860 C.ar  203  INH203     -0.0270
     23  C8        10.9040   26.5370    9.8450 C.ar  203  INH203      0.0080
     24  C5         8.5410   27.4330    8.4280 C.ar  203  INH203      0.0100
     25  C6         8.7410   27.7820    9.8060 C.ar  203  INH203      0.0010
     26  C7         9.9110   27.3380   10.5050 C.ar  203  INH203      0.0010
     27  O2         9.9990   23.7400    6.8820 O.3   203  INH203     -0.3930
     28  H10       10.2090   23.5950    7.7980 H     203  INH203      0.2100
     29  C20        6.9430   23.4460    2.0160 C.3   203  INH203      0.3010
     30  C27        8.3780   23.2120    2.4500 C.ar  203  INH203     -0.0300
     31  C28        8.7350   21.9680    3.0610 C.ar  203  INH203      0.0100
     32  C29       10.0780   21.7380    3.5060 C.ar  203  INH203      0.0140
     33  C30       11.0750   22.7610    3.3460 C.ar  203  INH203     -0.0090
     34  C32       10.7100   24.0000    2.7220 C.ar  203  INH203      0.0140
     35  C31        9.3710   24.2270    2.2740 C.ar  203  INH203      0.0100
     36  C38       12.4600   22.5260    3.8330 C.3   203  INH203      0.0420
     37  C37       13.0840   21.2440    3.7010 C.2   203  INH203      0.0300
     38  C36       14.4160   21.0510    4.1690 C.2   203  INH203      0.0040
     39  C35       15.1430   22.1180    4.7730 C.2   203  INH203      0.0170
     40  C39       14.5310   23.3910    4.9080 C.2   203  INH203      0.0880
     41  N5        13.1980   23.5900    4.4390 N.pl3 203  INH203     -0.3650
     42  H5        12.7650   24.5080    4.5370 H     203  INH203      0.1650
     43  N3         5.2050   22.9540    3.8330 N.am  203  INH203     -0.1840
     44  H22        5.7160   22.2690    4.3530 H     203  INH203      0.1970
     45  C21        3.8680   22.8020    3.9770 C.2   203  INH203      0.2650
     46  O4         3.3520   21.9190    4.6880 O.2   203  INH203     -0.2690
     47  C22        3.0020   23.8140    3.1880 C.3   203  INH203      0.1880
     48  N4         2.6270   23.1730    1.9120 N.am  203  INH203     -0.3230
     49  H32        2.0010   22.3950    1.9650 H     203  INH203      0.1650
     50  C26        3.0430   23.5320    0.6870 C.2   203  INH203      0.3600
     51  O5         2.9790   22.7170   -0.2550 O.2   203  INH203     -0.2390
     52  O6         3.5210   24.7940    0.5420 O.3   203  INH203     -0.3090
     53  C33        2.9660   25.7130   -0.3950 C.3   203  INH203      0.2150
     54  C23        1.7100   24.3920    3.8750 C.3   203  INH203     -0.0220
     55  C34        1.3330   25.7270    3.2270 C.3   203  INH203      0.0170
     56  C25        0.5010   23.4440    3.7910 C.3   203  INH203      0.0170
     57  C24        1.9290   24.7040    5.3780 C.3   203  INH203      0.0170
@<TRIPOS>BOND
     1    53    52    1
     2    51    50    2
     3    52    50    1
     4    50    48   am
     5    48    49    1
     6    48    47    1
     7    29    30    1
     8    29     1    1
     9    35    30   ar
    10    35    34   ar
    11    30    31   ar
    12     6     5    1
    13     2     1    1
    14    34    33   ar
    15    31    32   ar
    16     1     3    1
    17     1    43    1
    18    47    54    1
    19    47    45    1
    20    55    54    1
    21    33    32   ar
    22    33    36    1
    23     5     4    1
    24    37    36    1
    25    37    38    2
    26    56    54    1
    27     3     4    1
    28    36    41    1
    29    43    45   am
    30    43    44    1
    31    54    57    1
    32    45    46    2
    33    38    39    1
    34     4    14    1
    35     4     7    1
    36    41    42    1
    37    41    40    1
    38    39    40    2
    39    17    14    2
    40    14    15   am
    41    13    12   ar
    42    13     8   ar
    43    12    11   ar
    44     7     8    1
    45    15    16    1
    46    15    18    1
    47     8     9   ar
    48    18    19    1
    49    18    22    1
    50    19    27    1
    51    19    20    1
    52    11    10   ar
    53     9    10   ar
    54    27    28    1
    55    20    21    1
    56    22    24   ar
    57    22    21   ar
    58    24    25   ar
    59    21    23   ar
    60    25    26   ar
    61    23    26   ar
