@<TRIPOS>MOLECULE
/tmp/ewbell/vina_2cem_2cem_lig/vina/vina1.pdbqt
 57 61 0 0 0
SMALL
GASTEIGER

@<TRIPOS>ATOM
      1  N2        11.3140   23.6990    4.7380 N.4   203  INH203      0.0180
      2  H21       11.5860   24.6160    5.0570 H     203  INH203      0.3090
      3  C19       12.6030   23.0680    4.5910 C.3   203  INH203      0.3100
      4  C1        13.9410   23.1510    5.4060 C.3   203  INH203      0.1680
      5  O3        14.9520   23.9850    4.8600 O.3   203  INH203     -0.3780
      6  H18       15.2150   23.6490    4.0120 H     203  INH203      0.2110
      7  C12       13.8080   23.5820    6.9020 C.3   203  INH203      0.0880
      8  C13       14.6620   22.8350    7.9170 C.ar  203  INH203     -0.0550
      9  C18       16.0560   23.1390    8.0580 C.ar  203  INH203      0.0070
     10  C17       16.8490   22.4200    9.0090 C.ar  203  INH203      0.0010
     11  C16       16.2530   21.3990    9.8190 C.ar  203  INH203      0.0000
     12  C15       14.8600   21.0930    9.6820 C.ar  203  INH203      0.0010
     13  C14       14.0680   21.8070    8.7360 C.ar  203  INH203      0.0070
     14  C2        14.3000   21.6230    5.2900 C.2   203  INH203      0.2550
     15  N1        15.5710   21.2330    5.0600 N.am  203  INH203     -0.3470
     16  H1        16.2780   21.9310    4.9500 H     203  INH203      0.1630
     17  O1        13.4100   20.7650    5.4300 O.2   203  INH203     -0.2700
     18  C3        15.9510   19.8140    4.9640 C.3   203  INH203      0.1470
     19  C11       17.3350   19.4590    5.5880 C.3   203  INH203      0.1490
     20  C10       17.7140   18.1340    4.8810 C.3   203  INH203      0.0730
     21  C9        17.0410   18.2640    3.5350 C.ar  203  INH203     -0.0470
     22  C4        16.0230   19.2350    3.5800 C.ar  203  INH203     -0.0270
     23  C8        17.3330   17.5470    2.3390 C.ar  203  INH203      0.0080
     24  C5        15.2360   19.5440    2.4220 C.ar  203  INH203      0.0100
     25  C6        15.5180   18.8330    1.2070 C.ar  203  INH203      0.0010
     26  C7        16.5570   17.8460    1.1680 C.ar  203  INH203      0.0010
     27  O2        18.3340   20.3990    5.2180 O.3   203  INH203     -0.3930
     28  H10       19.1760   19.9600    5.1640 H     203  INH203      0.2100
     29  C20       10.8800   24.0290    3.3500 C.3   203  INH203      0.3010
     30  C27        9.3890   23.8420    3.1360 C.ar  203  INH203     -0.0300
     31  C28        8.5890   24.9610    2.7420 C.ar  203  INH203      0.0100
     32  C29        7.1740   24.8120    2.5630 C.ar  203  INH203      0.0140
     33  C30        6.5490   23.5380    2.7870 C.ar  203  INH203     -0.0090
     34  C32        7.3620   22.4190    3.1710 C.ar  203  INH203      0.0140
     35  C31        8.7740   22.5670    3.3440 C.ar  203  INH203      0.0100
     36  C38        5.0770   23.3970    2.6260 C.2   203  INH203      0.0420
     37  C37        4.3050   22.6100    3.5380 C.2   203  INH203      0.0300
     38  C36        2.8940   22.5010    3.3630 C.2   203  INH203      0.0040
     39  C35        2.2360   23.1640    2.2880 C.2   203  INH203      0.0170
     40  C39        2.9950   23.9460    1.3790 C.3   203  INH203      0.0880
     41  N5         4.4070   24.0610    1.5510 N.pl3 203  INH203     -0.3650
     42  H5         4.9480   24.6250    0.8970 H     203  INH203      0.1650
     43  N3        10.4790   23.3940    5.8000 N.am  203  INH203     -0.1840
     44  H22       10.1000   22.4720    5.7220 H     203  INH203      0.1970
     45  C21       10.0450   24.0260    6.9150 C.2   203  INH203      0.2650
     46  O4         9.2770   23.5010    7.7440 O.2   203  INH203     -0.2690
     47  C22       10.5730   25.4690    7.1020 C.3   203  INH203      0.1880
     48  N4        10.0420   26.2800    5.9880 N.am  203  INH203     -0.3230
     49  H32       10.7000   26.5890    5.3020 H     203  INH203      0.1650
     50  C26        8.7620   26.6450    5.8070 C.2   203  INH203      0.3600
     51  O5         8.4910   27.6170    5.0740 O.2   203  INH203     -0.2390
     52  O6         7.8150   25.9130    6.4470 O.3   203  INH203     -0.3090
     53  C33        6.5790   26.4800    6.8760 C.3   203  INH203      0.2150
     54  C23       10.2810   26.2040    8.4620 C.3   203  INH203     -0.0220
     55  C34       11.5300   26.1660    9.3470 C.3   203  INH203      0.0170
     56  C25        9.8510   27.6710    8.2790 C.3   203  INH203      0.0170
     57  C24        9.1650   25.5110    9.2820 C.3   203  INH203      0.0170
@<TRIPOS>BOND
     1    42    41    1
     2    26    25   ar
     3    26    23   ar
     4    25    24   ar
     5    40    41    1
     6    40    39    1
     7    41    36    1
     8    39    38    2
     9    23    21   ar
    10    24    22   ar
    11    32    31   ar
    12    32    33   ar
    13    36    33    1
    14    36    37    2
    15    31    30   ar
    16    33    34   ar
    17    30    35   ar
    18    30    29    1
    19    34    35   ar
    20    29     1    1
    21    38    37    1
    22    21    22   ar
    23    21    20    1
    24    22    18    1
    25     6     5    1
    26     3     1    1
    27     3     4    1
    28     1     2    1
    29     1    43    1
    30     5     4    1
    31    20    19    1
    32    16    15    1
    33    18    15    1
    34    18    19    1
    35    15    14   am
    36    51    50    2
    37    28    27    1
    38    27    19    1
    39    14     4    1
    40    14    17    2
    41    49    48    1
    42     4     7    1
    43    44    43    1
    44    43    45   am
    45    50    48   am
    46    50    52    1
    47    48    47    1
    48    52    53    1
    49     7     8    1
    50    45    47    1
    51    45    46    2
    52    47    54    1
    53     8     9   ar
    54     8    13   ar
    55     9    10   ar
    56    56    54    1
    57    54    57    1
    58    54    55    1
    59    13    12   ar
    60    10    11   ar
    61    12    11   ar
