@<TRIPOS>MOLECULE
/tmp/ewbell/vina_2cem_2cem_lig/vina/vina3.pdbqt
 57 61 0 0 0
SMALL
GASTEIGER

@<TRIPOS>ATOM
      1  N2         6.2490   26.1070    4.2860 N.4   203  INH203      0.0180
      2  H21        5.5300   26.5740    3.7560 H     203  INH203      0.3090
      3  C19        6.3570   26.9820    5.4280 C.3   203  INH203      0.3100
      4  C1         5.6010   27.0570    6.8020 C.3   203  INH203      0.1680
      5  O3         5.0720   25.8330    7.2880 O.3   203  INH203     -0.3780
      6  H18        5.6890   25.1310    7.1170 H     203  INH203      0.2110
      7  C12        6.4030   27.6690    7.9940 C.3   203  INH203      0.0880
      8  C13        7.7180   26.9940    8.3630 C.ar  203  INH203     -0.0550
      9  C18        7.7700   25.5810    8.5970 C.ar  203  INH203      0.0070
     10  C17        9.0110   24.9630    8.9550 C.ar  203  INH203      0.0010
     11  C16       10.1990   25.7540    9.0790 C.ar  203  INH203      0.0000
     12  C15       10.1520   27.1670    8.8470 C.ar  203  INH203      0.0010
     13  C14        8.9170   27.7840    8.4900 C.ar  203  INH203      0.0070
     14  C2         4.4750   28.0440    6.3160 C.2   203  INH203      0.2550
     15  N1         3.6250   28.6030    7.2030 N.am  203  INH203     -0.3470
     16  H1         3.7140   28.3700    8.1710 H     203  INH203      0.1630
     17  O1         4.3760   28.3250    5.1090 O.2   203  INH203     -0.2700
     18  C3         2.5710   29.5450    6.7910 C.3   203  INH203      0.1470
     19  C11        3.0020   31.0440    6.7620 C.3   203  INH203      0.1490
     20  C10        1.6560   31.8030    6.8640 C.3   203  INH203      0.0730
     21  C9         0.7920   30.8530    7.6610 C.ar  203  INH203     -0.0470
     22  C4         1.3190   29.5490    7.6210 C.ar  203  INH203     -0.0270
     23  C8        -0.4010   31.1520    8.3800 C.ar  203  INH203      0.0080
     24  C5         0.6780   28.4640    8.3040 C.ar  203  INH203      0.0100
     25  C6        -0.5240   28.7480    9.0370 C.ar  203  INH203      0.0010
     26  C7        -1.0560   30.0790    9.0730 C.ar  203  INH203      0.0010
     27  O2         3.7410   31.4000    7.9230 O.3   203  INH203     -0.3930
     28  H10        4.0220   30.6110    8.3720 H     203  INH203      0.2100
     29  C20        7.4370   26.4210    3.4410 C.3   203  INH203      0.3010
     30  C27        8.5870   25.4550    3.6530 C.ar  203  INH203     -0.0300
     31  C28        9.1320   24.7510    2.5330 C.ar  203  INH203      0.0100
     32  C29       10.1990   23.8110    2.7170 C.ar  203  INH203      0.0140
     33  C30       10.7240   23.5650    4.0320 C.ar  203  INH203     -0.0090
     34  C32       10.1780   24.2840    5.1470 C.ar  203  INH203      0.0140
     35  C31        9.1170   25.2250    4.9620 C.ar  203  INH203      0.0100
     36  C38       11.8130   22.5690    4.2190 C.2   203  INH203      0.0420
     37  C37       11.6760   21.4890    5.1490 C.2   203  INH203      0.0300
     38  C36       12.7340   20.5450    5.3000 C.2   203  INH203      0.0040
     39  C35       13.9330   20.6600    4.5390 C.2   203  INH203      0.0170
     40  C39       14.0750   21.7280    3.6150 C.3   203  INH203      0.0880
     41  N5        13.0180   22.6740    3.4580 N.pl3 203  INH203     -0.3650
     42  H5        13.1250   23.4390    2.7920 H     203  INH203      0.1650
     43  N3         5.6190   24.8780    4.3770 N.am  203  INH203     -0.1840
     44  H22        6.2540   24.1520    4.6450 H     203  INH203      0.1970
     45  C21        4.3630   24.4070    4.1950 C.2   203  INH203      0.2650
     46  O4         4.0490   23.2130    4.3610 O.2   203  INH203     -0.2690
     47  C22        3.3200   25.4650    3.7610 C.3   203  INH203      0.1880
     48  N4         2.9950   25.2090    2.3440 N.am  203  INH203     -0.3230
     49  H32        2.0830   24.8480    2.1490 H     203  INH203      0.1650
     50  C26        3.8030   25.4110    1.2910 C.2   203  INH203      0.3600
     51  O5         3.5820   24.8210    0.2150 O.2   203  INH203     -0.2390
     52  O6         4.8400   26.2700    1.4640 O.3   203  INH203     -0.3090
     53  C33        5.9920   26.2500    0.6250 C.3   203  INH203      0.2150
     54  C23        1.9850   25.5850    4.5840 C.3   203  INH203     -0.0220
     55  C34        1.3950   26.9870    4.4110 C.3   203  INH203      0.0170
     56  C25        0.9240   24.5490    4.1730 C.3   203  INH203      0.0170
     57  C24        2.2120   25.4110    6.1070 C.3   203  INH203      0.0170
@<TRIPOS>BOND
     1    51    50    2
     2    53    52    1
     3    50    52    1
     4    50    48   am
     5    49    48    1
     6    48    47    1
     7    31    32   ar
     8    31    30   ar
     9    32    33   ar
    10    42    41    1
    11    29    30    1
    12    29     1    1
    13    41    40    1
    14    41    36    1
    15    40    39    1
    16    30    35   ar
    17     2     1    1
    18    47    45    1
    19    47    54    1
    20    33    36    1
    21    33    34   ar
    22    56    54    1
    23    45    46    2
    24    45    43   am
    25    36    37    2
    26     1    43    1
    27     1     3    1
    28    43    44    1
    29    55    54    1
    30    39    38    2
    31    54    57    1
    32    35    34   ar
    33    17    14    2
    34    37    38    1
    35     3     4    1
    36    14     4    1
    37    14    15   am
    38    19    18    1
    39    19    20    1
    40    19    27    1
    41    18    15    1
    42    18    22    1
    43     4     5    1
    44     4     7    1
    45    20    21    1
    46     6     5    1
    47    15    16    1
    48    22    21   ar
    49    22    24   ar
    50    21    23   ar
    51    27    28    1
    52     7     8    1
    53    24    25   ar
    54     8    13   ar
    55     8     9   ar
    56    23    26   ar
    57    13    12   ar
    58     9    10   ar
    59    12    11   ar
    60    10    11   ar
    61    25    26   ar
