@<TRIPOS>MOLECULE
/tmp/ewbell/vina_2cem_2cem_lig/vina/vina5.pdbqt
 57 61 0 0 0
SMALL
GASTEIGER

@<TRIPOS>ATOM
      1  N2         5.7260   26.5250    4.8390 N.4   203  INH203      0.0180
      2  H21        5.9580   25.5640    4.6420 H     203  INH203      0.3090
      3  C19        5.6310   26.4920    6.2790 C.3   203  INH203      0.3100
      4  C1         5.3220   27.5850    7.3620 C.3   203  INH203      0.1680
      5  O3         5.2980   28.9280    6.9020 O.3   203  INH203     -0.3780
      6  H18        4.4730   29.0970    6.4650 H     203  INH203      0.2110
      7  C12        3.9980   27.3960    8.1690 C.3   203  INH203      0.0880
      8  C13        2.7250   27.1600    7.3670 C.ar  203  INH203     -0.0550
      9  C18        2.1400   28.2220    6.6030 C.ar  203  INH203      0.0070
     10  C17        0.9370   27.9880    5.8640 C.ar  203  INH203      0.0010
     11  C16        0.3180   26.6950    5.8860 C.ar  203  INH203      0.0000
     12  C15        0.9000   25.6310    6.6470 C.ar  203  INH203      0.0010
     13  C14        2.0980   25.8620    7.3850 C.ar  203  INH203      0.0070
     14  C2         6.5780   27.2850    8.2620 C.2   203  INH203      0.2550
     15  N1         7.5040   26.3870    7.8680 N.am  203  INH203     -0.3470
     16  H1         7.3730   25.9050    7.0020 H     203  INH203      0.1630
     17  O1         6.7290   27.8910    9.3380 O.2   203  INH203     -0.2700
     18  C3         8.7020   26.0920    8.6720 C.3   203  INH203      0.1470
     19  C11        9.4290   27.3420    9.2540 C.3   203  INH203      0.1490
     20  C10       10.8620   26.8250    9.5320 C.3   203  INH203      0.0730
     21  C9        11.0440   25.7550    8.4800 C.ar  203  INH203     -0.0470
     22  C4         9.7980   25.3320    7.9810 C.ar  203  INH203     -0.0270
     23  C8        12.2660   25.1990    8.0020 C.ar  203  INH203      0.0080
     24  C5         9.7050   24.3210    6.9690 C.ar  203  INH203      0.0100
     25  C6        10.9260   23.7510    6.4720 C.ar  203  INH203      0.0010
     26  C7        12.1920   24.1880    6.9850 C.ar  203  INH203      0.0010
     27  O2         9.5660   28.3710    8.2830 O.3   203  INH203     -0.3930
     28  H10       10.3790   28.2480    7.8060 H     203  INH203      0.2100
     29  C20        4.3160   26.5540    4.3560 C.3   203  INH203      0.3010
     30  C27        3.7610   25.1720    4.0660 C.ar  203  INH203     -0.0300
     31  C28        2.4390   25.0420    3.5330 C.ar  203  INH203      0.0100
     32  C29        1.8850   23.7440    3.2800 C.ar  203  INH203      0.0140
     33  C30        2.6530   22.5640    3.5680 C.ar  203  INH203     -0.0090
     34  C32        3.9820   22.7060    4.0910 C.ar  203  INH203      0.0140
     35  C31        4.5350   24.0010    4.3380 C.ar  203  INH203      0.0100
     36  C38        2.0620   21.2200    3.3270 C.2   203  INH203      0.0420
     37  C37        2.7150   20.0320    3.7860 C.2   203  INH203      0.0300
     38  C36        2.1200   18.7580    3.5480 C.2   203  INH203      0.0040
     39  C35        0.8800   18.6470    2.8560 C.2   203  INH203      0.0170
     40  C39        0.2270   19.8200    2.3980 C.3   203  INH203      0.0880
     41  N5         0.8170   21.0980    2.6360 N.pl3 203  INH203     -0.3650
     42  H5         0.3420   21.9380    2.3060 H     203  INH203      0.1650
     43  N3         6.8160   27.0940    4.2020 N.am  203  INH203     -0.1840
     44  H22        7.1000   27.9480    4.6390 H     203  INH203      0.1970
     45  C21        7.5940   26.7900    3.1370 C.2   203  INH203      0.2650
     46  O4         8.5550   27.4920    2.7690 O.2   203  INH203     -0.2690
     47  C22        7.2100   25.4880    2.3910 C.3   203  INH203      0.1880
     48  N4         7.1990   25.7940    0.9470 N.am  203  INH203     -0.3230
     49  H32        8.0120   25.5370    0.4260 H     203  INH203      0.1650
     50  C26        6.2040   26.3850    0.2650 C.2   203  INH203      0.3600
     51  O5         6.4400   26.9280   -0.8320 O.2   203  INH203     -0.2390
     52  O6         4.9670   26.3520    0.8240 O.3   203  INH203     -0.3090
     53  C33        3.8930   25.6150    0.2470 C.3   203  INH203      0.2150
     54  C23        8.0750   24.1980    2.6400 C.3   203  INH203     -0.0220
     55  C34        7.3670   22.9790    2.0430 C.3   203  INH203      0.0170
     56  C25        9.4890   24.2910    2.0400 C.3   203  INH203      0.0170
     57  C24        8.2500   23.8840    4.1470 C.3   203  INH203      0.0170
@<TRIPOS>BOND
     1    51    50    2
     2    53    52    1
     3    50    52    1
     4    50    48   am
     5    49    48    1
     6    48    47    1
     7    56    54    1
     8    55    54    1
     9    42    41    1
    10    47    54    1
    11    47    45    1
    12    40    41    1
    13    40    39    1
    14    41    36    1
    15    54    57    1
    16    46    45    2
    17    39    38    2
    18    45    43   am
    19    32    31   ar
    20    32    33   ar
    21    36    33    1
    22    36    37    2
    23    31    30   ar
    24    38    37    1
    25    33    34   ar
    26    30    35   ar
    27    30    29    1
    28    34    35   ar
    29    43    44    1
    30    43     1    1
    31    29     1    1
    32     2     1    1
    33     1     3    1
    34    10    11   ar
    35    10     9   ar
    36    11    12   ar
    37     3     4    1
    38     6     5    1
    39    25    24   ar
    40    25    26   ar
    41     9     8   ar
    42    12    13   ar
    43     5     4    1
    44    24    22   ar
    45    26    23   ar
    46    16    15    1
    47     4     7    1
    48     4    14    1
    49     8    13   ar
    50     8     7    1
    51    28    27    1
    52    15    14   am
    53    15    18    1
    54    22    21   ar
    55    22    18    1
    56    23    21   ar
    57    14    17    2
    58    27    19    1
    59    21    20    1
    60    18    19    1
    61    19    20    1
