@<TRIPOS>MOLECULE
./ligand/2v8y_lig.pdb
 50 53 0 0 0
SMALL
GASTEIGER

@<TRIPOS>ATOM
      1  C1        17.0830    5.8230   19.0620 C.ar  400  INH400     -0.0544
      2  C2        19.4510    6.3350   19.3980 C.ar  400  INH400     -0.0544
      3  C3        16.8110    6.2890   20.3400 C.ar  400  INH400     -0.0261
      4  C4        19.1550    6.8110   20.6580 C.ar  400  INH400     -0.0261
      5  C5        17.5780    3.2280   16.8490 C.3   400  INH400      0.1299
      6  C6        18.4000    5.8560   18.6240 C.ar  400  INH400     -0.0300
      7  C7        17.8500    6.7900   21.1150 C.ar  400  INH400      0.1234
      8  C8        19.7390    3.1140   17.2040 C.ar  400  INH400      0.1373
      9  C9        19.2440    1.8370   16.9580 C.ar  400  INH400      0.1549
     10  C10       21.1060    3.2860   17.4600 C.ar  400  INH400      0.2758
     11  C11       21.3530    0.9020   17.1890 C.ar  400  INH400      0.1948
     12  C12       15.5600    0.7310   18.3140 C.3   400  INH400      0.1133
     13  C13       16.7790   -0.0020   17.7660 C.3   400  INH400      0.1263
     14  C14       14.7420    0.8410   17.0270 C.3   400  INH400      0.1132
     15  C15       17.0180    0.7580   16.4570 C.3   400  INH400      0.1567
     16  C16       18.7220    5.3700   17.2720 C.3   400  INH400      0.0393
     17  C17       13.7190    2.0080   16.9220 C.3   400  INH400      0.0880
     18  N1        20.0500    0.7590   16.9450 N.ar  400  INH400     -0.1990
     19  N2        17.9290    1.9430   16.7380 N.pl3 400  INH400     -0.2633
     20  N3        18.6820    3.9120   17.1500 N.pl3 400  INH400     -0.2971
     21  N4        21.9040    2.1530   17.4540 N.ar  400  INH400     -0.2937
     22  N5        22.1570   -0.1550   17.1910 N.pl3 400  INH400     -0.3289
     23  O1        13.1140    5.4460   18.0080 O.2   400  INH400     -0.2224
     24  O2        15.0890    5.4930   16.3590 O.3   400  INH400     -0.1145
     25  O3        21.6400    4.3750   17.6900 O.2   400  INH400     -0.2657
     26  O4        12.7630    4.5330   15.6480 O.3   400  INH400     -0.1145
     27  O5        15.7430    1.1970   16.0230 O.3   400  INH400     -0.3478
     28  O6        14.9120   -0.0390   19.3620 O.3   400  INH400     -0.3864
     29  O7        16.4550   -1.3550   17.5050 O.3   400  INH400     -0.3849
     30  O8        14.3160    3.2520   17.2950 O.3   400  INH400     -0.2809
     31  F1        17.5980    7.2400   22.3500 F     400  INH400     -0.2055
     32  P1        13.7460    4.7110   16.7410 P.3   400  INH400      0.5320
     33  H1        16.2950    5.4460   18.4270 H     400  INH400      0.0622
     34  H2        20.4650    6.3340   19.0250 H     400  INH400      0.0622
     35  H3        15.8040    6.2630   20.7280 H     400  INH400      0.0646
     36  H4        19.9420    7.2000   21.2870 H     400  INH400      0.0646
     37  H5        16.5860    3.6360   16.7190 H     400  INH400      0.0747
     38  H6        15.7460    1.6960   18.8080 H     400  INH400      0.0647
     39  H7        17.6470   -0.0230   18.4410 H     400  INH400      0.0663
     40  H8        14.1710   -0.0950   16.9380 H     400  INH400      0.0647
     41  H9        17.4980    0.1350   15.6880 H     400  INH400      0.0837
     42  H10       19.7380    5.7070   17.0200 H     400  INH400      0.0514
     43  H11       17.9590    5.7750   16.5900 H     400  INH400      0.0514
     44  H12       13.3650    2.0800   15.8830 H     400  INH400      0.0592
     45  H13       12.8820    1.8020   17.6060 H     400  INH400      0.0592
     46  H14       22.8830    2.2340   17.6410 H     400  INH400      0.1716
     47  H15       23.0990    0.1170   17.3890 H     400  INH400      0.1451
     48  H16       21.8610   -1.0940   17.0180 H     400  INH400      0.1451
     49  H17       14.7710   -0.9290   19.0600 H     400  INH400      0.2100
     50  H18       16.3820   -1.4880   16.5670 H     400  INH400      0.2101
@<TRIPOS>BOND
     1     1     3   ar
     2     1    33    1
     3     1     6   ar
     4     2    34    1
     5     2     6   ar
     6     2     4   ar
     7     3     7   ar
     8     3    35    1
     9     4    36    1
    10     4     7   ar
    11     5    20    1
    12     5    37    1
    13     5    19    1
    14     6    16    1
    15     7    31    1
    16     8    20    1
    17     8     9   ar
    18     8    10   ar
    19     9    19    1
    20     9    18   ar
    21    10    25    2
    22    10    21   ar
    23    11    21   ar
    24    11    22    1
    25    11    18   ar
    26    12    13    1
    27    12    38    1
    28    12    28    1
    29    12    14    1
    30    13    15    1
    31    13    39    1
    32    13    29    1
    33    14    40    1
    34    14    27    1
    35    14    17    1
    36    15    19    1
    37    15    41    1
    38    15    27    1
    39    16    43    1
    40    16    42    1
    41    16    20    1
    42    17    45    1
    43    17    44    1
    44    17    30    1
    45    21    46    1
    46    22    48    1
    47    22    47    1
    48    23    32    2
    49    24    32    1
    50    26    32    1
    51    28    49    1
    52    29    50    1
    53    30    32    1
