@<TRIPOS>MOLECULE
/tmp/ewbell/vina_2v8y_2v8y_lig/vina/vina5.pdbqt
 40 43 0 0 0
SMALL
GASTEIGER

@<TRIPOS>ATOM
      1  C5        15.0420    0.0070   14.5950 C.3   400  INH400      0.1900
      2  C8        16.0200   -1.6960   13.6200 C.2   400  INH400      0.1500
      3  C9        15.2670   -0.9970   12.6810 C.2   400  INH400      0.1590
      4  C10       16.7380   -2.8310   13.2210 C.2   400  INH400      0.2900
      5  C11       15.8950   -2.4560   10.9920 C.3   400  INH400      0.6800
      6  N1        15.2210   -1.3760   11.3910 N.pl3 400  INH400     -0.1740
      7  H1        14.6720   -0.8400   10.7190 H     400  INH400      0.1860
      8  N2        14.6920    0.0370   13.3050 N.pl3 400  INH400     -0.2960
      9  N3        15.8260   -1.0570   14.7650 N.pl3 400  INH400     -0.3310
     10  N4        16.6560   -3.2020   11.8880 N.am  400  INH400     -0.1540
     11  N5        15.8480   -2.8480    9.7240 N.3   400  INH400     -0.2340
     12  O3        17.4320   -3.5170   13.9760 O.2   400  INH400     -0.2650
     13  H14       17.1470   -4.0120   11.5670 H     400  INH400      0.1870
     14  H15       16.4040   -3.6680    9.5860 H     400  INH400      0.1740
     15  H16       15.3290   -2.3860    9.0050 H     400  INH400      0.1740
     16  C15       13.7630    1.0290   12.6230 C.3   400  INH400      0.2620
     17  C13       12.3160    0.5590   12.8100 C.3   400  INH400      0.1980
     18  C12       11.9590    1.2240   14.1340 C.3   400  INH400      0.1820
     19  C14       12.5660    2.6050   13.8850 C.3   400  INH400      0.1800
     20  O5        13.8430    2.3000   13.2440 O.3   400  INH400     -0.3530
     21  O7        11.4910    1.0630   11.7760 O.3   400  INH400     -0.3880
     22  H18       10.6260    1.2470   12.1220 H     400  INH400      0.2100
     23  O6        10.5210    1.2390   14.3420 O.3   400  INH400     -0.3900
     24  H17       10.2050    0.3470   14.4310 H     400  INH400      0.2100
     25  C17       12.9950    3.4370   15.1280 C.3   400  INH400      0.2150
     26  O8        14.4170    3.4960   15.2430 O.3   400  INH400     -0.2940
     27  P1        15.2710    4.9010   15.0010 P.3   400  INH400      0.3900
     28  O1        16.6960    4.6730   15.6800 O.2   400  INH400     -0.6320
     29  O2        15.4950    4.9100   13.4170 O.3   400  INH400     -0.3070
     30  H         14.6410    4.8060   12.9690 H     400  INH400      0.2220
     31  O4        14.5640    6.0730   15.5650 O.3   400  INH400     -0.3070
     32  H         13.6230    6.0230   15.3370 H     400  INH400      0.2220
     33  C16       16.4820   -1.3850   16.0320 C.3   400  INH400      0.1680
     34  C6        17.5600   -0.4490   16.3950 C.ar  400  INH400     -0.0400
     35  C1        17.2480    0.8790   16.6520 C.ar  400  INH400      0.0120
     36  C3        18.2850    1.7370   16.9910 C.ar  400  INH400      0.0430
     37  C7        19.5850    1.2450   17.0340 C.ar  400  INH400      0.1160
     38  C4        19.8700   -0.0830   16.7760 C.ar  400  INH400      0.0430
     39  F1        20.5910    2.0640   17.3610 F     400  INH400     -0.2060
     40  C2        18.8520   -0.9570   16.4560 C.ar  400  INH400      0.0120
@<TRIPOS>BOND
     1    15    11    1
     2    14    11    1
     3    11     5    1
     4     7     6    1
     5     5     6    1
     6     5    10    1
     7     6     3    1
     8    13    10    1
     9    21    22    1
    10    21    17    1
    11    10     4   am
    12    16    17    1
    13    16    20    1
    14    16     8    1
    15     3     8    1
    16     3     2    2
    17    17    18    1
    18    30    29    1
    19     4     2    1
    20     4    12    2
    21    20    19    1
    22     8     1    1
    23    29    27    1
    24     2     9    1
    25    19    18    1
    26    19    25    1
    27    18    23    1
    28    23    24    1
    29     1     9    1
    30     9    33    1
    31    27    26    1
    32    27    31    1
    33    27    28    2
    34    25    26    1
    35    32    31    1
    36    33    34    1
    37    34    40   ar
    38    34    35   ar
    39    40    38   ar
    40    35    36   ar
    41    38    37   ar
    42    36    37   ar
    43    37    39    1
