@<TRIPOS>MOLECULE
/tmp/ewbell/vina_2v8y_2v8y_lig/vina/vina3.pdbqt
 40 43 0 0 0
SMALL
GASTEIGER

@<TRIPOS>ATOM
      1  C5        17.3800    3.3730   16.9960 C.3   400  INH400      0.1900
      2  C8        19.5390    3.1050   17.2710 C.2   400  INH400      0.1500
      3  C9        18.9480    1.8690   17.0250 C.2   400  INH400      0.1590
      4  C10       20.9230    3.1780   17.4790 C.2   400  INH400      0.2900
      5  C11       20.9940    0.7870   17.1670 C.3   400  INH400      0.6800
      6  N1        19.6770    0.7380   16.9680 N.pl3 400  INH400     -0.1740
      7  H1        19.2220   -0.1540   16.7730 H     400  INH400      0.1860
      8  N2        17.6370    2.0690   16.8540 N.pl3 400  INH400     -0.2960
      9  N3        18.5390    3.9740   17.2660 N.pl3 400  INH400     -0.3310
     10  N4        21.6400    1.9930   17.4290 N.am  400  INH400     -0.1540
     11  N5        21.7230   -0.3220   17.1250 N.3   400  INH400     -0.2340
     12  O3        21.5390    4.2240   17.7050 O.2   400  INH400     -0.2650
     13  H14       22.6280    2.0030   17.5810 H     400  INH400      0.1870
     14  H15       22.6880   -0.1190   17.2920 H     400  INH400      0.1740
     15  H16       21.3560   -1.2360   16.9500 H     400  INH400      0.1740
     16  C15       16.6370    0.9540   16.5900 C.3   400  INH400      0.2620
     17  C13       16.1320    0.4150   17.9340 C.3   400  INH400      0.1980
     18  C12       14.9470    1.3380   18.1940 C.3   400  INH400      0.1820
     19  C14       14.3310    1.3460   16.7950 C.3   400  INH400      0.1800
     20  O5        15.4940    1.4540   15.9170 O.3   400  INH400     -0.3530
     21  O7        15.6860   -0.9210   17.7990 O.3   400  INH400     -0.3880
     22  H18       15.3610   -1.0590   16.9170 H     400  INH400      0.2100
     23  O6        14.0750    0.7930   19.2210 O.3   400  INH400     -0.3900
     24  H17       13.2700    0.4840   18.8210 H     400  INH400      0.2100
     25  C17       13.4790    2.5830   16.3910 C.3   400  INH400      0.2150
     26  O8        13.9300    3.7610   17.0630 O.3   400  INH400     -0.2940
     27  P1        13.1850    5.2340   16.8690 P.3   400  INH400      0.3900
     28  O1        14.1450    6.0930   15.9290 O.2   400  INH400     -0.6320
     29  O2        11.8870    4.8640   16.0110 O.3   400  INH400     -0.3070
     30  H         11.1270    5.3720   16.3360 H     400  INH400      0.2220
     31  O4        12.9380    5.8950   18.1700 O.3   400  INH400     -0.3070
     32  H         12.1850    6.5010   18.0880 H     400  INH400      0.2220
     33  C16       18.6840    5.4240   17.4070 C.3   400  INH400      0.1680
     34  C6        18.4810    5.9050   18.7840 C.ar  400  INH400     -0.0400
     35  C1        19.5820    6.2830   19.5400 C.ar  400  INH400      0.0120
     36  C3        19.3590    6.7300   20.8340 C.ar  400  INH400      0.0430
     37  C7        18.0600    6.7580   21.3280 C.ar  400  INH400      0.1160
     38  C4        16.9790    6.3780   20.5550 C.ar  400  INH400      0.0430
     39  F1        17.8340    7.1890   22.5750 F     400  INH400     -0.2060
     40  C2        17.1750    5.9480   19.2590 C.ar  400  INH400      0.0120
@<TRIPOS>BOND
     1    20    16    1
     2    20    19    1
     3    28    27    2
     4    29    30    1
     5    29    27    1
     6    25    19    1
     7    25    26    1
     8    16     8    1
     9    16    17    1
    10     7     6    1
    11    19    18    1
    12     8     1    1
    13     8     3    1
    14    27    26    1
    15    27    31    1
    16    22    21    1
    17    15    11    1
    18     6     3    1
    19     6     5    1
    20     1     9    1
    21     3     2    2
    22    11     5    1
    23    11    14    1
    24     5    10    1
    25     9     2    1
    26     9    33    1
    27     2     4    1
    28    33    34    1
    29    10     4   am
    30    10    13    1
    31     4    12    2
    32    21    17    1
    33    17    18    1
    34    32    31    1
    35    18    23    1
    36    34    40   ar
    37    34    35   ar
    38    24    23    1
    39    40    38   ar
    40    35    36   ar
    41    38    37   ar
    42    36    37   ar
    43    37    39    1
