@<TRIPOS>MOLECULE
/tmp/ewbell/vina_2v8y_2v8y_lig/vina/vina4.pdbqt
 40 43 0 0 0
SMALL
GASTEIGER

@<TRIPOS>ATOM
      1  C5        15.5560    3.4550   16.8040 C.3   400  INH400      0.1900
      2  C8        15.0410    1.8660   15.3820 C.2   400  INH400      0.1500
      3  C9        14.4770    3.0650   14.9580 C.2   400  INH400      0.1590
      4  C10       14.8430    0.7040   14.6240 C.2   400  INH400      0.2900
      5  C11       13.5520    2.0470   13.0910 C.3   400  INH400      0.6800
      6  N1        13.7540    3.1420   13.8250 N.pl3 400  INH400     -0.1740
      7  H1        13.3620    4.0360   13.5280 H     400  INH400      0.1860
      8  N2        14.8160    4.0120   15.8400 N.pl3 400  INH400     -0.2960
      9  N3        15.6610    2.1570   16.5170 N.pl3 400  INH400     -0.3310
     10  N4        14.0810    0.8170   13.4720 N.am  400  INH400     -0.1540
     11  N5        12.8310    2.1070   11.9780 N.3   400  INH400     -0.2340
     12  O3        15.2990   -0.4050   14.9160 O.2   400  INH400     -0.2650
     13  H14       13.9100    0.0080   12.9090 H     400  INH400      0.1870
     14  H15       12.7730    1.2070   11.5450 H     400  INH400      0.1740
     15  H16       12.4050    2.9380   11.6210 H     400  INH400      0.1740
     16  C15       14.3690    5.4620   15.7410 C.3   400  INH400      0.2620
     17  C13       13.4930    5.7920   16.9550 C.3   400  INH400      0.1980
     18  C12       14.5440    6.2460   17.9610 C.3   400  INH400      0.1820
     19  C14       15.4000    7.1200   17.0440 C.3   400  INH400      0.1800
     20  O5        15.4810    6.3370   15.8140 O.3   400  INH400     -0.3530
     21  O7        12.6130    6.8590   16.6590 O.3   400  INH400     -0.3880
     22  H18       11.7640    6.5110   16.4120 H     400  INH400      0.2100
     23  O6        13.9360    6.9660   19.0660 O.3   400  INH400     -0.3900
     24  H17       13.2240    6.4500   19.4270 H     400  INH400      0.2100
     25  C17       16.8950    7.3180   17.4260 C.3   400  INH400      0.2150
     26  O8        17.0270    7.7640   18.7770 O.3   400  INH400     -0.2940
     27  P1        17.7310    6.8300   19.9570 P.3   400  INH400      0.3900
     28  O1        18.9660    6.0990   19.2610 O.2   400  INH400     -0.6320
     29  O2        18.3290    7.9210   20.9620 O.3   400  INH400     -0.3070
     30  H         18.5130    8.7410   20.4780 H     400  INH400      0.2220
     31  O4        16.7660    5.8690   20.5380 O.3   400  INH400     -0.3070
     32  H         15.8620    6.1600   20.3450 H     400  INH400      0.2220
     33  C16       16.4700    1.2190   17.2980 C.3   400  INH400      0.1680
     34  C6        17.9140    1.5040   17.2470 C.ar  400  INH400     -0.0400
     35  C1        18.8050    0.4590   17.0390 C.ar  400  INH400      0.0120
     36  C3        20.1590    0.7580   16.9970 C.ar  400  INH400      0.0430
     37  C7        20.5690    2.0720   17.1880 C.ar  400  INH400      0.1160
     38  C4        19.6630    3.0960   17.3910 C.ar  400  INH400      0.0430
     39  F1        21.8740    2.3700   17.1480 F     400  INH400     -0.2060
     40  C2        18.3110    2.8250   17.4180 C.ar  400  INH400      0.0120
@<TRIPOS>BOND
     1    14    11    1
     2    15    11    1
     3    11     5    1
     4    13    10    1
     5     5    10    1
     6     5     6    1
     7    10     4   am
     8     7     6    1
     9     6     3    1
    10     4    12    2
    11     4     2    1
    12     3     2    2
    13     3     8    1
    14     2     9    1
    15    16    20    1
    16    16     8    1
    17    16    17    1
    18    20    19    1
    19     8     1    1
    20    22    21    1
    21     9     1    1
    22     9    33    1
    23    21    17    1
    24    17    18    1
    25    36    35   ar
    26    36    37   ar
    27    35    34   ar
    28    19    25    1
    29    19    18    1
    30    39    37    1
    31    37    38   ar
    32    34    33    1
    33    34    40   ar
    34    38    40   ar
    35    25    26    1
    36    18    23    1
    37    26    27    1
    38    23    24    1
    39    28    27    2
    40    27    31    1
    41    27    29    1
    42    32    31    1
    43    30    29    1
