@<TRIPOS>MOLECULE
/tmp/ewbell/vina_2v8y_2v8y_lig/vina/vina2.pdbqt
 40 43 0 0 0
SMALL
GASTEIGER

@<TRIPOS>ATOM
      1  C5        16.7290    5.2980   16.3220 C.3   400  INH400      0.1900
      2  C8        16.2620    5.4970   18.4550 C.2   400  INH400      0.1500
      3  C9        15.0900    5.2510   17.7480 C.2   400  INH400      0.1590
      4  C10       16.2070    5.6610   19.8460 C.2   400  INH400      0.2900
      5  C11       13.8260    5.3080   19.6910 C.3   400  INH400      0.6800
      6  N1        13.8990    5.1520   18.3690 N.pl3 400  INH400     -0.1740
      7  H1        13.0560    4.9580   17.8290 H     400  INH400      0.1860
      8  N2        15.4100    5.1270   16.4550 N.pl3 400  INH400     -0.2960
      9  N3        17.2180    5.5390   17.5380 N.pl3 400  INH400     -0.3310
     10  N4        14.9640    5.5680   20.4510 N.am  400  INH400     -0.1540
     11  N5        12.6560    5.2250   20.3140 N.3   400  INH400     -0.2340
     12  O3        17.1890    5.8830   20.5610 O.2   400  INH400     -0.2650
     13  H14       14.8820    5.6890   21.4400 H     400  INH400      0.1870
     14  H15       12.7690    5.3640   21.2990 H     400  INH400      0.1740
     15  H16       11.7830    5.0470   19.8620 H     400  INH400      0.1740
     16  C15       14.3940    4.8780   15.3500 C.3   400  INH400      0.2620
     17  C13       14.9200    3.7640   14.4390 C.3   400  INH400      0.1980
     18  C12       14.3730    2.5270   15.1410 C.3   400  INH400      0.1820
     19  C14       12.9590    3.0230   15.4450 C.3   400  INH400      0.1800
     20  O5        13.1750    4.3980   15.8890 O.3   400  INH400     -0.3530
     21  O7        14.3610    3.8740   13.1440 O.3   400  INH400     -0.3880
     22  H18       13.8300    3.1070   12.9610 H     400  INH400      0.2100
     23  O6        14.4180    1.3660   14.2680 O.3   400  INH400     -0.3900
     24  H17       14.1060    0.6020   14.7410 H     400  INH400      0.2100
     25  C17       12.2160    2.3830   16.6520 C.3   400  INH400      0.2150
     26  O8        11.7800    3.3810   17.5770 O.3   400  INH400     -0.2940
     27  P1        10.2820    4.0930   17.4750 P.3   400  INH400      0.3900
     28  O1         9.2830    2.9480   16.9900 O.2   400  INH400     -0.6320
     29  O2         9.9360    4.4090   19.0050 O.3   400  INH400     -0.3070
     30  H          9.9410    5.3690   19.1460 H     400  INH400      0.2220
     31  O4        10.2920    5.2540   16.5570 O.3   400  INH400     -0.3070
     32  H         10.1680    6.0700   17.0650 H     400  INH400      0.2220
     33  C16       18.6460    5.6980   17.8180 C.3   400  INH400      0.1680
     34  C6        19.4240    4.4620   17.6280 C.ar  400  INH400     -0.0400
     35  C1        18.7560    3.2710   17.3780 C.ar  400  INH400      0.0120
     36  C3        19.5160    2.1230   17.2050 C.ar  400  INH400      0.0430
     37  C7        20.8990    2.2030   17.3140 C.ar  400  INH400      0.1160
     38  C4        21.5420    3.4010   17.5620 C.ar  400  INH400      0.0430
     39  F1        21.6410    1.1020   17.1480 F     400  INH400     -0.2060
     40  C2        20.8080    4.5580   17.7180 C.ar  400  INH400      0.0120
@<TRIPOS>BOND
     1    22    21    1
     2    21    17    1
     3    23    24    1
     4    23    18    1
     5    17    18    1
     6    17    16    1
     7    18    19    1
     8    16    20    1
     9    16     8    1
    10    19    20    1
    11    19    25    1
    12     1     8    1
    13     1     9    1
    14     8     3    1
    15    31    32    1
    16    31    27    1
    17    25    26    1
    18    28    27    2
    19    39    37    1
    20    36    37   ar
    21    36    35   ar
    22    37    38   ar
    23    35    34   ar
    24    27    26    1
    25    27    29    1
    26     9    33    1
    27     9     2    1
    28    38    40   ar
    29    34    40   ar
    30    34    33    1
    31     3     6    1
    32     3     2    2
    33     7     6    1
    34     6     5    1
    35     2     4    1
    36    29    30    1
    37     5    11    1
    38     5    10    1
    39     4    10   am
    40     4    12    2
    41    15    11    1
    42    11    14    1
    43    10    13    1
