@<TRIPOS>MOLECULE
/tmp/ewbell/vina_2v8y_2v8y_lig/vina/vina1.pdbqt
 40 43 0 0 0
SMALL
GASTEIGER

@<TRIPOS>ATOM
      1  C5        18.0370    3.3760   17.2730 C.3   400  INH400      0.1900
      2  C8        20.0800    2.5780   17.3060 C.2   400  INH400      0.1500
      3  C9        19.1880    1.5520   17.0070 C.2   400  INH400      0.1590
      4  C10       21.4510    2.2990   17.3820 C.2   400  INH400      0.2900
      5  C11       20.9130    0.0110   16.8440 C.3   400  INH400      0.6800
      6  N1        19.6120    0.2960   16.7730 N.pl3 400  INH400     -0.1740
      7  H1        18.9400   -0.4360   16.5430 H     400  INH400      0.1860
      8  N2        17.9570    2.0730   16.9860 N.pl3 400  INH400     -0.2960
      9  N3        19.3250    3.6530   17.4810 N.pl3 400  INH400     -0.3310
     10  N4        21.8510    0.9930   17.1510 N.am  400  INH400     -0.1540
     11  N5        21.3420   -1.2270   16.6270 N.3   400  INH400     -0.2340
     12  O3        22.3190    3.1380   17.6420 O.2   400  INH400     -0.2650
     13  H14       22.8200    0.7530   17.2050 H     400  INH400      0.1870
     14  H15       22.3370   -1.2770   16.7170 H     400  INH400      0.1740
     15  H16       20.7520   -2.0030   16.4060 H     400  INH400      0.1740
     16  C15       16.6980    1.2630   16.7200 C.3   400  INH400      0.2620
     17  C13       15.9540    1.0570   18.0450 C.3   400  INH400      0.1980
     18  C12       15.0750    2.3010   18.0840 C.3   400  INH400      0.1820
     19  C14       14.6000    2.3120   16.6310 C.3   400  INH400      0.1800
     20  O5        15.8080    1.9780   15.8810 O.3   400  INH400     -0.3530
     21  O7        15.1480   -0.1050   17.9890 O.3   400  INH400     -0.3880
     22  H18       15.6610   -0.8590   18.2570 H     400  INH400      0.2100
     23  O6        14.0040    2.1560   19.0550 O.3   400  INH400     -0.3900
     24  H17       14.0380    2.8760   19.6750 H     400  INH400      0.2100
     25  C17       14.1820    3.6800   16.0200 C.3   400  INH400      0.2150
     26  O8        13.3310    4.4040   16.9110 O.3   400  INH400     -0.2940
     27  P1        13.1380    6.0520   16.8120 P.3   400  INH400      0.3900
     28  O1        13.4680    6.6220   18.2640 O.2   400  INH400     -0.6320
     29  O2        14.3340    6.4910   15.8450 O.3   400  INH400     -0.3070
     30  H         15.0440    6.8930   16.3710 H     400  INH400      0.2220
     31  O4        11.7740    6.4140   16.3650 O.3   400  INH400     -0.3070
     32  H         11.1650    6.3770   17.1190 H     400  INH400      0.2220
     33  C16       19.8300    5.0020   17.7410 C.3   400  INH400      0.1680
     34  C6        18.7970    6.0470   17.6410 C.ar  400  INH400     -0.0400
     35  C1        18.6540    6.7490   16.4520 C.ar  400  INH400      0.0120
     36  C3        17.6730    7.7280   16.3880 C.ar  400  INH400      0.0430
     37  C7        16.8960    7.9840   17.5130 C.ar  400  INH400      0.1160
     38  C4        17.0560    7.2700   18.6860 C.ar  400  INH400      0.0430
     39  F1        15.9470    8.9250   17.4610 F     400  INH400     -0.2060
     40  C2        18.0120    6.2790   18.7650 C.ar  400  INH400      0.0120
@<TRIPOS>BOND
     1    29    30    1
     2    29    27    1
     3    20    19    1
     4    20    16    1
     5    25    19    1
     6    25    26    1
     7    31    27    1
     8    31    32    1
     9    36    35   ar
    10    36    37   ar
    11    15    11    1
    12    35    34   ar
    13     7     6    1
    14    11    14    1
    15    11     5    1
    16    19    18    1
    17    16     8    1
    18    16    17    1
    19     6     5    1
    20     6     3    1
    21    27    26    1
    22    27    28    2
    23     5    10    1
    24     8     3    1
    25     8     1    1
    26     3     2    2
    27    10    13    1
    28    10     4   am
    29     1     9    1
    30     2     4    1
    31     2     9    1
    32     4    12    2
    33    39    37    1
    34     9    33    1
    35    37    38   ar
    36    34    33    1
    37    34    40   ar
    38    21    17    1
    39    21    22    1
    40    17    18    1
    41    18    23    1
    42    38    40   ar
    43    23    24    1
