@<TRIPOS>MOLECULE
./ligand/1duv_lig.pdb
 30 29 0 0 0
SMALL
GASTEIGER

@<TRIPOS>ATOM
      1  N1        29.7720    7.4710   25.2470 N.4   1006  INH1006     0.2289
      2  C1        29.7540    8.8020   24.5930 C.3   1006  INH1006     0.0786
      3  C2        31.1920    9.3800   24.6430 C.2   1006  INH1006     0.4026
      4  O1        31.8020    9.3970   25.7440 O.co2 1006  INH1006    -0.2400
      5  C3        28.6760    9.7060   25.2530 C.3   1006  INH1006     0.0020
      6  C4        28.5300   11.1030   24.6040 C.3   1006  INH1006    -0.0343
      7  O2        31.7350    9.7760   23.5750 O.co2 1006  INH1006    -0.2400
      8  S1        27.6570   16.4910   23.5070 S.3   1006  INH1006    -0.1211
      9  O3        27.3000   17.2980   22.2810 O.3   1006  INH1006    -0.2915
     10  O4        28.7920   15.7870   23.4180 O.3   1006  INH1006    -0.2915
     11  O5        27.7220   17.4660   24.7420 O.3   1006  INH1006    -0.2915
     12  P1        26.3190   14.3010   24.8570 P.3   1006  INH1006     0.3127
     13  N2        24.6690   13.8230   24.8630 N.3   1006  INH1006    -0.2545
     14  O6        26.6320   14.7490   26.2730 O.2   1006  INH1006    -0.2665
     15  N3        27.4460   13.2060   24.4900 N.3   1006  INH1006    -0.2407
     16  C5        27.4790   11.9640   25.2980 C.3   1006  INH1006     0.0047
     17  N4        26.3940   15.5350   23.7070 N.3   1006  INH1006    -0.0402
     18  H1        23.9570   14.4880   25.0880 H     1006  INH1006     0.1280
     19  H2        24.4210   12.8800   24.6420 H     1006  INH1006     0.1280
     20  H3        28.0970   13.3590   23.7460 H     1006  INH1006     0.1317
     21  H4        29.4770    8.6740   23.5360 H     1006  INH1006     0.0970
     22  H5        27.7060    9.1910   25.1840 H     1006  INH1006     0.0326
     23  H6        28.9440    9.8440   26.3110 H     1006  INH1006     0.0326
     24  H7        29.5000   11.6190   24.6570 H     1006  INH1006     0.0280
     25  H8        28.2400   10.9740   23.5510 H     1006  INH1006     0.0280
     26  H9        26.4980   11.4660   25.2910 H     1006  INH1006     0.0429
     27  H10       27.7730   12.1800   26.3360 H     1006  INH1006     0.0429
     28  H11       30.4740    6.8920   24.8120 H     1006  INH1006     0.2002
     29  H12       28.8680    7.0350   25.1470 H     1006  INH1006     0.2002
     30  H13       29.9860    7.5810   26.2260 H     1006  INH1006     0.2002
@<TRIPOS>BOND
     1     9     8    1
     2    10     8    1
     3     8    17    1
     4     8    11    1
     5    21     2    1
     6    25     6    1
     7     7     3   ar
     8    17    12    1
     9    20    15    1
    10    15    12    1
    11    15    16    1
    12     2     3    1
    13     2     1    1
    14     2     5    1
    15     6    24    1
    16     6     5    1
    17     6    16    1
    18    19    13    1
    19     3     4   ar
    20    28     1    1
    21    12    13    1
    22    12    14    2
    23    13    18    1
    24    29     1    1
    25    22     5    1
    26     1    30    1
    27     5    23    1
    28    26    16    1
    29    16    27    1
