@<TRIPOS>MOLECULE
/tmp/ewbell/vina_1duv_1duv_lig/vina/vina1.pdbqt
 28 27 0 0 0
SMALL
GASTEIGER

@<TRIPOS>ATOM
      1  P1        31.4950   32.8010   24.5910 P.3   1006  INH1006     0.3320
      2  O6        30.7520   31.4940   24.3880 O.2   1006  INH1006    -0.2560
      3  N4        31.4330   33.3970   26.1690 N.3   1006  INH1006    -0.1320
      4  H         31.2370   34.3950   26.0810 H     1006  INH1006     0.1510
      5  S1        32.6360   33.2830   27.2130 S.3   1006  INH1006     0.1650
      6  O3        33.6870   34.2060   26.6430 O.3   1006  INH1006    -0.2950
      7  H         33.2600   34.9960   26.2770 H     1006  INH1006     0.2310
      8  O4        33.0200   32.0110   27.3780 O.3   1006  INH1006    -0.2950
      9  H         33.7040   31.7930   26.7250 H     1006  INH1006     0.2310
     10  O5        32.1410   33.8800   28.5840 O.3   1006  INH1006    -0.2950
     11  H         32.2570   33.2190   29.2840 H     1006  INH1006     0.2310
     12  N3        33.0370   32.4820   24.2380 N.3   1006  INH1006    -0.3430
     13  H3        33.7090   33.2160   24.1290 H     1006  INH1006     0.1630
     14  C5        33.4200   31.0590   24.0810 C.3   1006  INH1006     0.1240
     15  C4        34.9180   31.1110   23.7940 C.3   1006  INH1006     0.0220
     16  C3        35.4290   29.8440   23.0690 C.3   1006  INH1006     0.0450
     17  C1        36.9760   29.7340   22.9830 C.3   1006  INH1006     0.2800
     18  N1        37.3840   29.3650   21.6050 N.4   1006  INH1006    -0.0650
     19  H11       36.9670   30.0060   20.9480 H     1006  INH1006     0.2750
     20  H12       37.0730   28.4270   21.4020 H     1006  INH1006     0.2750
     21  H13       38.3890   29.4110   21.5290 H     1006  INH1006     0.2750
     22  C2        37.6010   28.7040   23.9600 C.2   1006  INH1006     0.1710
     23  O2        38.1340   27.6600   23.4970 O.2   1006  INH1006    -0.6480
     24  O1        37.5200   28.9160   25.1990 O.3   1006  INH1006    -0.7750
     25  H         36.7520   29.3180   25.5560 H     1006  INH1006     0.1670
     26  N2        30.6570   33.9740   23.6570 N.3   1006  INH1006    -0.3520
     27  H2        31.1590   34.5590   23.0200 H     1006  INH1006     0.1600
     28  H1        29.6670   34.0720   23.7510 H     1006  INH1006     0.1600
@<TRIPOS>BOND
     1    19    18    1
     2    20    18    1
     3    21    18    1
     4    18    17    1
     5    17    16    1
     6    17    22    1
     7    27    26    1
     8    16    15    1
     9    23    22    2
    10    26    28    1
    11    26     1    1
    12    15    14    1
    13    22    24    1
    14    14    12    1
    15    13    12    1
    16    12     1    1
    17     2     1    2
    18     1     3    1
    19    24    25    1
    20     4     3    1
    21     3     5    1
    22     7     6    1
    23     6     5    1
    24     9     8    1
    25     5     8    1
    26     5    10    1
    27    10    11    1
