@<TRIPOS>MOLECULE
/tmp/ewbell/vina_1duv_1duv_lig/vina/vina2.pdbqt
 28 27 0 0 0
SMALL
GASTEIGER

@<TRIPOS>ATOM
      1  P1        33.3820   31.9840   25.0310 P.3   1006  INH1006     0.3320
      2  O6        32.2610   31.3100   24.2610 O.2   1006  INH1006    -0.2560
      3  N4        33.1940   31.9410   26.7090 N.3   1006  INH1006    -0.1320
      4  H         33.2680   30.9570   26.9700 H     1006  INH1006     0.1510
      5  S1        31.9080   32.4960   27.4750 S.3   1006  INH1006     0.1650
      6  O3        32.4680   33.5820   28.3640 O.3   1006  INH1006    -0.2950
      7  H         32.1740   34.4480   28.0410 H     1006  INH1006     0.2310
      8  O4        31.2580   31.5150   28.1120 O.3   1006  INH1006    -0.2950
      9  H         30.4160   31.8540   28.4550 H     1006  INH1006     0.2310
     10  O5        30.9640   33.1660   26.4070 O.3   1006  INH1006    -0.2950
     11  H         30.0420   33.0900   26.6980 H     1006  INH1006     0.2310
     12  N3        34.7200   31.1640   24.6560 N.3   1006  INH1006    -0.3430
     13  H3        35.5030   31.1350   25.2780 H     1006  INH1006     0.1630
     14  C5        34.7430   30.4550   23.3550 C.3   1006  INH1006     0.1240
     15  C4        36.1980   30.0270   23.1960 C.3   1006  INH1006     0.0220
     16  C3        36.4300   29.1640   21.9330 C.3   1006  INH1006     0.0450
     17  C1        37.7620   29.4570   21.1910 C.3   1006  INH1006     0.2800
     18  N1        37.9700   30.9220   21.0790 N.4   1006  INH1006    -0.0650
     19  H11       37.9620   31.3340   22.0000 H     1006  INH1006     0.2750
     20  H12       37.2310   31.3260   20.5240 H     1006  INH1006     0.2750
     21  H13       38.8590   31.1020   20.6380 H     1006  INH1006     0.2750
     22  C2        37.8490   28.8510   19.7660 C.2   1006  INH1006     0.1710
     23  O2        37.9350   27.6000   19.6320 O.2   1006  INH1006    -0.6480
     24  O1        37.8770   29.6290   18.7760 O.3   1006  INH1006    -0.7750
     25  H         38.5390   29.5290   18.1190 H     1006  INH1006     0.1670
     26  N2        33.2940   33.6530   24.6340 N.3   1006  INH1006    -0.3520
     27  H2        32.4700   34.0230   24.2050 H     1006  INH1006     0.1600
     28  H1        34.0670   34.2550   24.8320 H     1006  INH1006     0.1600
@<TRIPOS>BOND
     1    25    24    1
     2    24    22    1
     3    23    22    2
     4    22    17    1
     5    20    18    1
     6    21    18    1
     7    18    17    1
     8    18    19    1
     9    17    16    1
    10    16    15    1
    11    15    14    1
    12    14    12    1
    13    27    26    1
    14     2     1    2
    15    26    28    1
    16    26     1    1
    17    12     1    1
    18    12    13    1
    19     1     3    1
    20    10    11    1
    21    10     5    1
    22     3     4    1
    23     3     5    1
    24     5     8    1
    25     5     6    1
    26     7     6    1
    27     8     9    1
