@<TRIPOS>MOLECULE
/tmp/ewbell/vina_1duv_1duv_lig/vina/vina3.pdbqt
 28 27 0 0 0
SMALL
GASTEIGER

@<TRIPOS>ATOM
      1  P1        37.5930   28.9420   22.4070 P.3   1006  INH1006     0.3320
      2  O6        37.0120   27.7640   21.6460 O.2   1006  INH1006    -0.2560
      3  N4        38.9020   29.6830   21.6420 N.3   1006  INH1006    -0.1320
      4  H         38.6410   29.7600   20.6580 H     1006  INH1006     0.1510
      5  S1        40.3880   29.0960   21.6500 S.3   1006  INH1006     0.1650
      6  O3        40.1950   27.6410   21.2930 O.3   1006  INH1006    -0.2950
      7  H         39.2520   27.4180   21.3420 H     1006  INH1006     0.2310
      8  O4        40.9950   29.3230   22.8210 O.3   1006  INH1006    -0.2950
      9  H         41.4890   30.1560   22.7730 H     1006  INH1006     0.2310
     10  O5        41.1850   29.7920   20.4840 O.3   1006  INH1006    -0.2950
     11  H         40.5780   30.0010   19.7570 H     1006  INH1006     0.2310
     12  N3        36.3980   30.0210   22.5120 N.3   1006  INH1006    -0.3430
     13  H3        36.1100   30.5570   21.7170 H     1006  INH1006     0.1630
     14  C5        35.7440   30.1890   23.8310 C.3   1006  INH1006     0.1240
     15  C4        34.6740   31.2470   23.5780 C.3   1006  INH1006     0.0220
     16  C3        33.6200   31.3070   24.7090 C.3   1006  INH1006     0.0450
     17  C1        32.5550   32.4250   24.5340 C.3   1006  INH1006     0.2800
     18  N1        32.8980   33.5920   25.3830 N.4   1006  INH1006    -0.0650
     19  H11       32.6040   34.4410   24.9230 H     1006  INH1006     0.2750
     20  H12       33.8950   33.6190   25.5320 H     1006  INH1006     0.2750
     21  H13       32.4270   33.5100   26.2720 H     1006  INH1006     0.2750
     22  C2        31.1070   31.9900   24.8790 C.2   1006  INH1006     0.1710
     23  O2        30.1440   32.4810   24.2290 O.2   1006  INH1006    -0.6480
     24  O1        30.9250   31.1900   25.8340 O.3   1006  INH1006    -0.7750
     25  H         31.1030   30.2760   25.7200 H     1006  INH1006     0.1670
     26  N2        38.2540   28.2930   23.8540 N.3   1006  INH1006    -0.3520
     27  H2        38.8460   28.8570   24.4300 H     1006  INH1006     0.1600
     28  H1        38.0470   27.3520   24.1200 H     1006  INH1006     0.1600
@<TRIPOS>BOND
     1    11    10    1
     2    10     5    1
     3     4     3    1
     4     6     7    1
     5     6     5    1
     6     3     5    1
     7     3     1    1
     8     2     1    2
     9     5     8    1
    10    13    12    1
    11     1    12    1
    12     1    26    1
    13    12    14    1
    14     9     8    1
    15    15    14    1
    16    15    16    1
    17    26    28    1
    18    26    27    1
    19    23    22    2
    20    17    16    1
    21    17    22    1
    22    17    18    1
    23    22    24    1
    24    19    18    1
    25    18    20    1
    26    18    21    1
    27    25    24    1
