@<TRIPOS>MOLECULE
/tmp/ewbell/vina_1duv_1duv_lig/vina/vina4.pdbqt
 28 27 0 0 0
SMALL
GASTEIGER

@<TRIPOS>ATOM
      1  P1        39.4120   28.8910   21.5900 P.3   1006  INH1006     0.3320
      2  O6        40.4180   29.7910   22.2830 O.2   1006  INH1006    -0.2560
      3  N4        39.8490   27.2600   21.5540 N.3   1006  INH1006    -0.1320
      4  H         40.1790   27.0830   20.6050 H     1006  INH1006     0.1510
      5  S1        38.8490   26.0620   21.8960 S.3   1006  INH1006     0.1650
      6  O3        38.3960   26.3710   23.3040 O.3   1006  INH1006    -0.2950
      7  H         39.1560   26.3290   23.9050 H     1006  INH1006     0.2310
      8  O4        39.4400   24.8730   21.7330 O.3   1006  INH1006    -0.2950
      9  H         39.0750   24.4350   20.9480 H     1006  INH1006     0.2310
     10  O5        37.6070   26.1850   20.9350 O.3   1006  INH1006    -0.2950
     11  H         37.2100   25.3100   20.8080 H     1006  INH1006     0.2310
     12  N3        38.0500   29.0240   22.4460 N.3   1006  INH1006    -0.3430
     13  H3        37.8970   28.4760   23.2690 H     1006  INH1006     0.1630
     14  C5        37.0340   29.9900   21.9650 C.3   1006  INH1006     0.1240
     15  C4        35.9590   29.9600   23.0460 C.3   1006  INH1006     0.0220
     16  C3        35.2890   31.3390   23.2560 C.3   1006  INH1006     0.0450
     17  C1        34.1030   31.3290   24.2600 C.3   1006  INH1006     0.2800
     18  N1        32.9140   30.6980   23.6380 N.4   1006  INH1006    -0.0650
     19  H11       32.2080   31.4000   23.4730 H     1006  INH1006     0.2750
     20  H12       32.5460   29.9900   24.2560 H     1006  INH1006     0.2750
     21  H13       33.1790   30.2740   22.7610 H     1006  INH1006     0.2750
     22  C2        33.6870   32.7330   24.7730 C.2   1006  INH1006     0.1710
     23  O2        33.8980   33.0360   25.9790 O.2   1006  INH1006    -0.6480
     24  O1        33.1050   33.5200   23.9820 O.3   1006  INH1006    -0.7750
     25  H         32.2770   33.2850   23.6100 H     1006  INH1006     0.1670
     26  N2        39.4040   29.3680   19.9400 N.3   1006  INH1006    -0.3520
     27  H2        39.7100   30.2840   19.6830 H     1006  INH1006     0.1600
     28  H1        39.0950   28.7280   19.2370 H     1006  INH1006     0.1600
@<TRIPOS>BOND
     1    28    26    1
     2    27    26    1
     3    26     1    1
     4     4     3    1
     5    11    10    1
     6    10     5    1
     7     9     8    1
     8     3     1    1
     9     3     5    1
    10     1     2    2
    11     1    12    1
    12     8     5    1
    13     5     6    1
    14    14    12    1
    15    14    15    1
    16    12    13    1
    17    21    18    1
    18    15    16    1
    19    16    17    1
    20     6     7    1
    21    19    18    1
    22    25    24    1
    23    18    20    1
    24    18    17    1
    25    24    22    1
    26    17    22    1
    27    22    23    2
