@<TRIPOS>MOLECULE
/tmp/ewbell/vina_1duv_1duv_lig/vina/vina5.pdbqt
 28 27 0 0 0
SMALL
GASTEIGER

@<TRIPOS>ATOM
      1  P1        37.6490   27.4720   21.2620 P.3   1006  INH1006     0.3320
      2  O6        36.5590   26.6850   21.9670 O.2   1006  INH1006    -0.2560
      3  N4        37.5180   27.4830   19.5790 N.3   1006  INH1006    -0.1320
      4  H         37.7460   26.5350   19.2770 H     1006  INH1006     0.1510
      5  S1        38.3560   28.4530   18.6270 S.3   1006  INH1006     0.1650
      6  O3        39.5110   28.8910   19.4960 O.3   1006  INH1006    -0.2950
      7  H         39.1900   29.5030   20.1770 H     1006  INH1006     0.2310
      8  O4        37.5940   29.4430   18.1460 O.3   1006  INH1006    -0.2950
      9  H         37.3910   29.2720   17.2140 H     1006  INH1006     0.2310
     10  O5        38.9270   27.5870   17.4410 O.3   1006  INH1006    -0.2950
     11  H         38.1960   27.1340   16.9910 H     1006  INH1006     0.2310
     12  N3        37.4940   28.9910   21.7850 N.3   1006  INH1006    -0.3430
     13  H3        37.7310   29.7680   21.2020 H     1006  INH1006     0.1630
     14  C5        36.9880   29.1880   23.1640 C.3   1006  INH1006     0.1240
     15  C4        35.7600   30.0750   22.9800 C.3   1006  INH1006     0.0220
     16  C3        35.1590   30.5440   24.3270 C.3   1006  INH1006     0.0450
     17  C1        33.8840   31.4210   24.1890 C.3   1006  INH1006     0.2800
     18  N1        34.2610   32.8230   23.8860 N.4   1006  INH1006    -0.0650
     19  H11       34.1220   33.0040   22.9030 H     1006  INH1006     0.2750
     20  H12       35.2310   32.9690   24.1200 H     1006  INH1006     0.2750
     21  H13       33.6860   33.4500   24.4280 H     1006  INH1006     0.2750
     22  C2        32.9740   31.4300   25.4450 C.2   1006  INH1006     0.1710
     23  O2        31.7400   31.2060   25.3140 O.2   1006  INH1006    -0.6480
     24  O1        33.4840   31.7080   26.5620 O.3   1006  INH1006    -0.7750
     25  H         33.0620   31.4290   27.3520 H     1006  INH1006     0.1670
     26  N2        39.1160   26.6330   21.5710 N.3   1006  INH1006    -0.3520
     27  H2        39.1100   25.6400   21.6830 H     1006  INH1006     0.1600
     28  H1        39.9750   27.1390   21.6380 H     1006  INH1006     0.1600
@<TRIPOS>BOND
     1    11    10    1
     2     9     8    1
     3    10     5    1
     4     8     5    1
     5     5     6    1
     6     5     3    1
     7     4     3    1
     8     6     7    1
     9     3     1    1
    10    13    12    1
    11     1    26    1
    12     1    12    1
    13     1     2    2
    14    26    28    1
    15    26    27    1
    16    12    14    1
    17    19    18    1
    18    15    14    1
    19    15    16    1
    20    18    20    1
    21    18    17    1
    22    18    21    1
    23    17    16    1
    24    17    22    1
    25    23    22    2
    26    22    24    1
    27    24    25    1
