@<TRIPOS>MOLECULE
./ligand/2qry_lig.pdb
 38 39 0 0 0
SMALL
GASTEIGER

@<TRIPOS>ATOM
      1  C1         9.8580   44.3530  109.6850 C.3   311  INH311     -0.0046
      2  N1         7.6780   50.3510  111.2580 N.pl3 311  INH311     -0.3134
      3  C2         8.9510   50.3080  110.9180 C.3   311  INH311      0.1022
      4  S1         9.4980   51.9300  111.1200 S.3   311  INH311     -0.1027
      5  C3         7.9700   52.6320  111.6710 C.2   311  INH311      0.0062
      6  C4         7.1330   51.5370  111.6510 C.2   311  INH311      0.0142
      7  C5         5.6710   51.6690  112.0630 C.3   311  INH311     -0.0258
      8  C6         7.7930   54.0720  112.0390 C.3   311  INH311      0.0038
      9  C7         9.1690   54.6330  111.6800 C.3   311  INH311      0.0637
     10  O1         9.3320   56.0150  111.9740 O.3   311  INH311     -0.2833
     11  N2         8.8200   45.8370  111.3500 N.ar  311  INH311     -0.2401
     12  C8         9.0710   45.5870  110.0620 C.ar  311  INH311      0.1280
     13  N3         8.6410   46.4090  109.1070 N.ar  311  INH311     -0.2177
     14  C9         7.9370   47.5230  109.4020 C.ar  311  INH311      0.1243
     15  N4         7.5070   48.3610  108.3890 N.pl3 311  INH311     -0.3428
     16  C10        7.6490   47.8250  110.7710 C.ar  311  INH311      0.0274
     17  C11        8.1280   46.9210  111.7340 C.ar  311  INH311      0.0376
     18  C12        6.8550   49.0780  111.2130 C.3   311  INH311      0.0428
     19  P1        10.8320   56.4040  111.5150 P.3   311  INH311      0.5319
     20  O2        11.8480   55.4540  112.2090 O.3   311  INH311     -0.1145
     21  O3        11.1520   57.9240  111.8200 O.3   311  INH311     -0.1145
     22  O4        10.9410   56.1890  109.9900 O.2   311  INH311     -0.2224
     23  H1         9.9680   44.3080  108.5910 H     311  INH311      0.0308
     24  H2         9.3260   43.4570  110.0370 H     311  INH311      0.0308
     25  H3        10.8530   44.3960  110.1520 H     311  INH311      0.0308
     26  H4         9.5260   49.4450  110.5860 H     311  INH311      0.0646
     27  H5         5.4600   52.7130  112.3380 H     311  INH311      0.0290
     28  H6         5.4730   51.0150  112.9250 H     311  INH311      0.0290
     29  H7         5.0250   51.3740  111.2230 H     311  INH311      0.0290
     30  H8         6.9960   54.5460  111.4470 H     311  INH311      0.0341
     31  H9         7.5740   54.1920  113.1100 H     311  INH311      0.0341
     32  H10        9.9280   54.0690  112.2420 H     311  INH311      0.0569
     33  H11        9.3290   54.4890  110.6010 H     311  INH311      0.0569
     34  H12        7.7200   48.1340  107.4070 H     311  INH311      0.1437
     35  H13        6.9740   49.2120  108.6160 H     311  INH311      0.1437
     36  H14        7.9390   47.0990  112.7860 H     311  INH311      0.0834
     37  H15        6.0260   49.2280  110.5060 H     311  INH311      0.0515
     38  H16        6.4500   48.8930  112.2190 H     311  INH311      0.0515
@<TRIPOS>BOND
     1     1    25    1
     2     1    24    1
     3     1    23    1
     4     1    12    1
     5     2    18    1
     6     2     6    1
     7     2     3    1
     8     3    26    1
     9     3     4    1
    10     4     5    1
    11     5     8    1
    12     5     6    2
    13     6     7    1
    14     7    29    1
    15     7    28    1
    16     7    27    1
    17     8    31    1
    18     8    30    1
    19     8     9    1
    20     9    33    1
    21     9    32    1
    22     9    10    1
    23    10    19    1
    24    11    12   ar
    25    11    17   ar
    26    12    13   ar
    27    13    14   ar
    28    14    16   ar
    29    14    15    1
    30    15    35    1
    31    15    34    1
    32    16    17   ar
    33    16    18    1
    34    17    36    1
    35    18    38    1
    36    18    37    1
    37    19    22    2
    38    19    21    1
    39    19    20    1
