@<TRIPOS>MOLECULE
/tmp/ewbell/vina_2qry_2qry_lig/vina/vina2.pdbqt
 28 29 0 0 0
SMALL
GASTEIGER

@<TRIPOS>ATOM
      1  N1         7.6070   48.7910  110.0880 N.pl3 311  INH311     -0.3490
      2  C2         7.4540   49.4610  108.9630 C.3   311  INH311      0.1410
      3  S1         7.9390   48.3490  107.7380 S.3   311  INH311     -0.0870
      4  C3         8.3360   46.9870  108.7940 C.2   311  INH311      0.0080
      5  C4         8.0640   47.5070  110.0410 C.2   311  INH311      0.0210
      6  C5         8.2640   46.6640  111.2960 C.3   311  INH311      0.0690
      7  C12        7.2600   49.4600  111.4030 C.3   311  INH311      0.1720
      8  C10        7.5810   50.9740  111.4480 C.2   311  INH311      0.0190
      9  C9         6.5730   51.9860  111.5430 C.3   311  INH311      0.1090
     10  N3         6.9430   53.2830  111.5810 N.3   311  INH311     -0.3320
     11  C8         8.2250   53.6410  111.5300 C.3   311  INH311      0.0780
     12  H3         6.2260   54.0060  111.6510 H     311  INH311      0.1680
     13  C1         8.5920   55.1060  111.5780 C.3   311  INH311      0.0890
     14  N2         9.1910   52.7250  111.4400 N.pl3 311  INH311     -0.3550
     15  C11        8.9150   51.4110  111.3980 C.2   311  INH311      0.1020
     16  H2        10.1640   53.0300  111.4010 H     311  INH311      0.1660
     17  N4         5.2330   51.6440  111.6030 N.3   311  INH311     -0.3850
     18  H13        4.5510   52.3040  112.0010 H     311  INH311      0.1570
     19  H12        4.9190   50.7290  111.2510 H     311  INH311      0.1570
     20  C6         8.8250   45.6600  108.3040 C.3   311  INH311      0.0750
     21  C7         9.2170   46.0100  106.8670 C.3   311  INH311      0.1850
     22  O1         9.7720   44.9250  106.1320 O.3   311  INH311     -0.2970
     23  P1        11.2720   45.3700  105.7280 P.3   311  INH311      0.3900
     24  O4        12.1910   45.1280  106.9440 O.2   311  INH311     -0.6320
     25  O3        11.8210   44.5080  104.5180 O.3   311  INH311     -0.3070
     26  H         11.5440   44.9110  103.6820 H     311  INH311      0.2220
     27  O2        11.2910   46.8900  105.4030 O.3   311  INH311     -0.3070
     28  H         12.1690   47.1400  105.0750 H     311  INH311      0.2220
@<TRIPOS>BOND
     1    26    25    1
     2    25    23    1
     3    28    27    1
     4    27    23    1
     5    23    22    1
     6    23    24    2
     7    22    21    1
     8    21    20    1
     9     3     4    1
    10     3     2    1
    11    20     4    1
    12     4     5    2
    13     2     1    1
    14     5     1    1
    15     5     6    1
    16     1     7    1
    17    19    17    1
    18    15    14    1
    19    15     8    2
    20    16    14    1
    21     7     8    1
    22    14    11    1
    23     8     9    1
    24    11    13    1
    25    11    10    1
    26     9    10    1
    27     9    17    1
    28    10    12    1
    29    17    18    1
