@<TRIPOS>MOLECULE
/tmp/ewbell/vina_2qry_2qry_lig/vina/vina4.pdbqt
 28 29 0 0 0
SMALL
GASTEIGER

@<TRIPOS>ATOM
      1  N1         8.8660   45.8860  108.5340 N.pl3 311  INH311     -0.3490
      2  C2         9.5460   45.1100  109.3550 C.3   311  INH311      0.1410
      3  S1        10.8040   44.4560  108.3750 S.3   311  INH311     -0.0870
      4  C3        10.3740   45.2660  106.8610 C.2   311  INH311      0.0080
      5  C4         9.2630   45.9910  107.2350 C.2   311  INH311      0.0210
      6  C5         8.5330   46.8700  106.2250 C.3   311  INH311      0.0690
      7  C12        7.6670   46.6520  109.0600 C.3   311  INH311      0.1720
      8  C10        8.0190   48.0080  109.7180 C.2   311  INH311      0.0190
      9  C9         8.3580   48.1430  111.1020 C.3   311  INH311      0.1090
     10  N3         8.6570   49.3650  111.5920 N.3   311  INH311     -0.3320
     11  C8         8.6410   50.4470  110.8140 C.3   311  INH311      0.0780
     12  H3         8.9000   49.4630  112.5770 H     311  INH311      0.1680
     13  C1         8.9850   51.7940  111.4050 C.3   311  INH311      0.0890
     14  N2         8.3290   50.3580  109.5190 N.pl3 311  INH311     -0.3550
     15  C11        8.0200   49.1830  108.9480 C.2   311  INH311      0.1020
     16  H2         8.3240   51.2040  108.9500 H     311  INH311      0.1660
     17  N4         8.3870   47.0360  111.9320 N.3   311  INH311     -0.3850
     18  H13        7.7060   46.2760  111.8010 H     311  INH311      0.1570
     19  H12        9.0900   46.9740  112.6820 H     311  INH311      0.1570
     20  C6        11.1330   45.1080  105.5800 C.3   311  INH311      0.0750
     21  C7        12.2570   46.1230  105.7840 C.3   311  INH311      0.1850
     22  O1        11.9670   47.4240  105.2880 O.3   311  INH311     -0.2970
     23  P1        13.3910   48.1580  105.0720 P.3   311  INH311      0.3900
     24  O4        13.1230   49.6260  104.6790 O.2   311  INH311     -0.6320
     25  O3        14.2460   48.1550  106.4050 O.3   311  INH311     -0.3070
     26  H         13.6930   47.8580  107.1440 H     311  INH311      0.2220
     27  O2        14.1520   47.4760  103.9020 O.3   311  INH311     -0.3070
     28  H         13.5210   47.2130  103.2140 H     311  INH311      0.2220
@<TRIPOS>BOND
     1    28    27    1
     2    27    23    1
     3    24    23    2
     4    23    22    1
     5    23    25    1
     6    22    21    1
     7    20    21    1
     8    20     4    1
     9     6     5    1
    10    25    26    1
    11     4     5    2
    12     4     3    1
    13     5     1    1
    14     3     2    1
    15     1     7    1
    16     1     2    1
    17    15    14    1
    18    15     8    2
    19    16    14    1
    20     7     8    1
    21    14    11    1
    22     8     9    1
    23    11    13    1
    24    11    10    1
    25     9    10    1
    26     9    17    1
    27    10    12    1
    28    18    17    1
    29    17    19    1
