@<TRIPOS>MOLECULE
/tmp/ewbell/vina_2qry_2qry_lig/vina/vina3.pdbqt
 28 29 0 0 0
SMALL
GASTEIGER

@<TRIPOS>ATOM
      1  N1         8.7520   46.3180  107.6970 N.pl3 311  INH311     -0.3490
      2  C2         8.3790   47.4280  107.0900 C.3   311  INH311      0.1410
      3  S1         7.7820   48.4250  108.3630 S.3   311  INH311     -0.0870
      4  C3         8.0600   47.3010  109.7000 C.2   311  INH311      0.0080
      5  C4         8.6000   46.2140  109.0470 C.2   311  INH311      0.0210
      6  C5         9.0100   44.9670  109.8230 C.3   311  INH311      0.0690
      7  C12        9.3490   45.1900  106.8780 C.3   311  INH311      0.1720
      8  C10       10.8420   45.3890  106.5190 C.2   311  INH311      0.0190
      9  C9        11.9040   44.6830  107.1670 C.3   311  INH311      0.1090
     10  N3        13.1780   44.9150  106.7870 N.3   311  INH311     -0.3320
     11  C8        13.4670   45.7880  105.8230 C.3   311  INH311      0.0780
     12  H3        13.9370   44.4120  107.2470 H     311  INH311      0.1680
     13  C1        14.9080   46.0130  105.4280 C.3   311  INH311      0.0890
     14  N2        12.5010   46.4650  105.1970 N.pl3 311  INH311     -0.3550
     15  C11       11.2060   46.2960  105.5090 C.2   311  INH311      0.1020
     16  H2        12.7530   47.1270  104.4630 H     311  INH311      0.1660
     17  N4        11.6350   43.7670  108.1690 N.3   311  INH311     -0.3850
     18  H13       12.3500   43.5530  108.8760 H     311  INH311      0.1570
     19  H12       10.7180   43.2990  108.2050 H     311  INH311      0.1570
     20  C6         7.7450   47.6060  111.1320 C.3   311  INH311      0.0750
     21  C7         7.7170   49.1340  111.1020 C.3   311  INH311      0.1850
     22  O1         6.6020   49.7110  111.7710 O.3   311  INH311     -0.2970
     23  P1         6.4560   51.2150  111.1990 P.3   311  INH311      0.3900
     24  O4         7.4080   52.1300  111.9990 O.2   311  INH311     -0.6320
     25  O3         6.8700   51.2930  109.6720 O.3   311  INH311     -0.3070
     26  H          6.7120   52.1890  109.3390 H     311  INH311      0.2220
     27  O2         5.0030   51.7160  111.4250 O.3   311  INH311     -0.3070
     28  H          4.7290   52.2650  110.6740 H     311  INH311      0.2220
@<TRIPOS>BOND
     1    16    14    1
     2    14    15    1
     3    14    11    1
     4    13    11    1
     5    15     8    2
     6    11    10    1
     7     8     7    1
     8     8     9    1
     9    10     9    1
    10    10    12    1
    11     7     1    1
    12     2     1    1
    13     2     3    1
    14     9    17    1
    15     1     5    1
    16    17    19    1
    17    17    18    1
    18     3     4    1
    19     5     4    2
    20     5     6    1
    21    26    25    1
    22    25    23    1
    23     4    20    1
    24    28    27    1
    25    21    20    1
    26    21    22    1
    27    23    27    1
    28    23    22    1
    29    23    24    2
