@<TRIPOS>MOLECULE
/tmp/ewbell/vina_2qry_2qry_lig/vina/vina5.pdbqt
 28 29 0 0 0
SMALL
GASTEIGER

@<TRIPOS>ATOM
      1  N1         8.5410   46.3500  108.2440 N.pl3 311  INH311     -0.3490
      2  C2         8.3490   47.3030  107.3530 C.3   311  INH311      0.1410
      3  S1         7.9260   48.6840  108.2930 S.3   311  INH311     -0.0870
      4  C3         8.0260   47.9270  109.8900 C.2   311  INH311      0.0080
      5  C4         8.3810   46.6340  109.5670 C.2   311  INH311      0.0210
      6  C5         8.5880   45.5900  110.6590 C.3   311  INH311      0.0690
      7  C12        8.9460   44.9660  107.7740 C.3   311  INH311      0.1720
      8  C10       10.2740   44.9290  106.9800 C.2   311  INH311      0.0190
      9  C9        10.3350   45.0060  105.5520 C.3   311  INH311      0.1090
     10  N3        11.5380   44.9720  104.9410 N.3   311  INH311     -0.3320
     11  C8        12.6680   44.8660  105.6390 C.3   311  INH311      0.0780
     12  H3        11.5840   45.0280  103.9240 H     311  INH311      0.1680
     13  C1        13.9930   44.8340  104.9120 C.3   311  INH311      0.0890
     14  N2        12.6490   44.7900  106.9720 N.pl3 311  INH311     -0.3550
     15  C11       11.4970   44.8190  107.6620 C.2   311  INH311      0.1020
     16  H2        13.5300   44.7090  107.4780 H     311  INH311      0.1660
     17  N4         9.1780   45.1220  104.8020 N.3   311  INH311     -0.3850
     18  H13        9.2300   45.1190  103.7740 H     311  INH311      0.1570
     19  H12        8.2670   45.2120  105.2710 H     311  INH311      0.1570
     20  C6         7.7700   48.6460  111.1770 C.3   311  INH311      0.0750
     21  C7         8.4790   49.9750  110.9110 C.3   311  INH311      0.1850
     22  O1         8.2180   50.9810  111.8820 O.3   311  INH311     -0.2970
     23  P1         7.5320   52.2110  111.0900 P.3   311  INH311      0.3900
     24  O4         6.7120   51.6320  109.9170 O.2   311  INH311     -0.6320
     25  O3         6.5440   53.0190  112.0270 O.3   311  INH311     -0.3070
     26  H          6.1370   53.7390  111.5220 H     311  INH311      0.2220
     27  O2         8.6390   53.1270  110.4980 O.3   311  INH311     -0.3070
     28  H          8.2300   53.8920  110.0660 H     311  INH311      0.2220
@<TRIPOS>BOND
     1    18    17    1
     2    12    10    1
     3    17    19    1
     4    17     9    1
     5    13    11    1
     6    10     9    1
     7    10    11    1
     8     9     8    1
     9    11    14    1
    10    14    16    1
    11    14    15    1
    12     8    15    2
    13     8     7    1
    14     2     1    1
    15     2     3    1
    16     7     1    1
    17     1     5    1
    18     3     4    1
    19     5     4    2
    20     5     6    1
    21     4    20    1
    22    24    23    2
    23    28    27    1
    24    27    23    1
    25    21    20    1
    26    21    22    1
    27    23    22    1
    28    23    25    1
    29    26    25    1
