@<TRIPOS>MOLECULE
/tmp/ewbell/vina_2qry_2qry_lig/vina/vina1.pdbqt
 28 29 0 0 0
SMALL
GASTEIGER

@<TRIPOS>ATOM
      1  N1         7.5140   50.5380  111.3090 N.pl3 311  INH311     -0.3490
      2  C2         8.7400   50.5120  110.8270 C.3   311  INH311      0.1410
      3  S1         9.2790   52.1450  110.9540 S.3   311  INH311     -0.0870
      4  C3         7.8120   52.8270  111.6690 C.2   311  INH311      0.0080
      5  C4         6.9970   51.7190  111.7530 C.2   311  INH311      0.0210
      6  C5         5.5890   51.8310  112.3270 C.3   311  INH311      0.0690
      7  C12        6.7130   49.2520  111.3680 C.3   311  INH311      0.1720
      8  C10        7.5040   47.9920  110.9380 C.2   311  INH311      0.0190
      9  C9         7.7060   47.6230  109.5700 C.3   311  INH311      0.1090
     10  N3         8.4140   46.5090  109.2860 N.3   311  INH311     -0.3320
     11  C8         8.9250   45.7470  110.2520 C.3   311  INH311      0.0780
     12  H3         8.5610   46.2450  108.3120 H     311  INH311      0.1680
     13  C1         9.7130   44.5100  109.8870 C.3   311  INH311      0.0890
     14  N2         8.7550   46.0600  111.5390 N.pl3 311  INH311     -0.3550
     15  C11        8.0660   47.1510  111.9130 C.2   311  INH311      0.1020
     16  H2         9.1580   45.4560  112.2550 H     311  INH311      0.1660
     17  N4         7.1910   48.3980  108.5460 N.3   311  INH311     -0.3850
     18  H13        6.2300   48.7590  108.6080 H     311  INH311      0.1570
     19  H12        7.7700   48.6130  107.7230 H     311  INH311      0.1570
     20  C6         7.6530   54.2680  112.0440 C.3   311  INH311      0.0750
     21  C7         8.7280   54.9140  111.1690 C.3   311  INH311      0.1850
     22  O1        10.0370   54.8700  111.7240 O.3   311  INH311     -0.2970
     23  P1        10.7060   56.3110  111.4260 P.3   311  INH311      0.3900
     24  O4        12.2340   56.1780  111.5950 O.2   311  INH311     -0.6320
     25  O3        10.4160   56.7840  109.9420 O.3   311  INH311     -0.3070
     26  H          9.9900   57.6540  109.9570 H     311  INH311      0.2220
     27  O2        10.1930   57.3450  112.4670 O.3   311  INH311     -0.3070
     28  H          9.2250   57.3130  112.5050 H     311  INH311      0.2220
@<TRIPOS>BOND
     1    19    17    1
     2    12    10    1
     3    17    18    1
     4    17     9    1
     5    10     9    1
     6    10    11    1
     7     9     8    1
     8    13    11    1
     9    25    26    1
    10    25    23    1
    11    11    14    1
    12     2     3    1
    13     2     1    1
    14     8     7    1
    15     8    15    2
    16     3     4    1
    17    21    22    1
    18    21    20    1
    19     1     7    1
    20     1     5    1
    21    23    24    2
    22    23    22    1
    23    23    27    1
    24    14    15    1
    25    14    16    1
    26     4     5    2
    27     4    20    1
    28     5     6    1
    29    27    28    1
