@<TRIPOS>MOLECULE
./ligand/2h6b_lig.pdb
 18 18 0 0 0
SMALL
GASTEIGER

@<TRIPOS>ATOM
      1  O1        60.5330   83.3660   11.3130 O.co2 1921  INH1921    -0.2460
      2  C1        61.4870   83.2680   12.1480 C.2   1921  INH1921     0.3603
      3  O2        62.5310   82.5720   11.9040 O.co2 1921  INH1921    -0.2460
      4  C2        61.2990   84.0550   13.4320 C.3   1921  INH1921     0.0743
      5  C3        62.4180   83.8990   14.4920 C.ar  1921  INH1921    -0.0350
      6  C4        63.6360   84.4950   14.3050 C.ar  1921  INH1921    -0.0545
      7  C5        64.6000   84.4000   15.1460 C.ar  1921  INH1921    -0.0185
      8  C6        64.5040   83.6120   16.3990 C.ar  1921  INH1921     0.1351
      9  O3        65.5260   83.4780   17.3610 O.3   1921  INH1921    -0.5053
     10 Cl1        62.7560   82.0230   17.9910 Cl    1921  INH1921    -0.0798
     11  C7        63.1470   82.9630   16.5560 C.ar  1921  INH1921     0.0825
     12  C8        62.1830   83.1490   15.6160 C.ar  1921  INH1921    -0.0361
     13  H1        60.3530   83.7310   13.8910 H     1921  INH1921     0.0428
     14  H2        61.2320   85.1210   13.1670 H     1921  INH1921     0.0428
     15  H3        63.7930   85.0750   13.4030 H     1921  INH1921     0.0622
     16  H4        65.5270   84.9190   14.9310 H     1921  INH1921     0.0654
     17  H5        66.2940   83.9590   17.0760 H     1921  INH1921     0.2922
     18  H6        61.2090   82.6950   15.7580 H     1921  INH1921     0.0636
@<TRIPOS>BOND
     1     1     2   ar
     2     3     2   ar
     3     2     4    1
     4    14     4    1
     5    15     6    1
     6     4    13    1
     7     4     5    1
     8     6     5   ar
     9     6     7   ar
    10     5    12   ar
    11    16     7    1
    12     7     8   ar
    13    12    18    1
    14    12    11   ar
    15     8    11   ar
    16     8     9    1
    17    11    10    1
    18    17     9    1
