@<TRIPOS>MOLECULE
/tmp/ewbell/vina_2h6b_2h6b_lig/vina/vina4.pdbqt
 14 14 0 0 0
SMALL
GASTEIGER

@<TRIPOS>ATOM
      1  C3        63.0160   93.5060   25.9310 C.ar  1921  INH1921    -0.0460
      2  C4        63.3130   92.2260   25.5470 C.ar  1921  INH1921     0.0100
      3  C5        62.5860   91.2150   25.8550 C.ar  1921  INH1921     0.0390
      4  C6        61.3320   91.3300   26.6390 C.ar  1921  INH1921     0.0870
      5 Cl1        59.6400   93.1590   28.0180 Cl    1921  INH1921    -0.0810
      6  C7        61.0390   92.7610   27.0290 C.ar  1921  INH1921     0.0670
      7  C8        61.8910   93.7590   26.6730 C.ar  1921  INH1921     0.0340
      8  C2        63.9390   94.6810   25.5200 C.3   1921  INH1921     0.1480
      9  C1        65.3090   94.2950   24.9940 C.2   1921  INH1921     0.1430
     10  O1        66.1860   94.0770   25.8880 O.2   1921  INH1921    -0.6500
     11  O2        65.5690   94.1750   23.7480 O.3   1921  INH1921    -0.7760
     12  H         65.6260   93.3220   23.3620 H     1921  INH1921     0.1670
     13  O3        60.5000   90.2550   27.0120 O.3   1921  INH1921    -0.3590
     14  H5        60.4180   90.2310   27.9580 H     1921  INH1921     0.2170
@<TRIPOS>BOND
     1    12    11    1
     2    11     9    1
     3     9     8    1
     4     9    10    2
     5     8     1    1
     6     2     3   ar
     7     2     1   ar
     8     3     4   ar
     9     1     7   ar
    10     4    13    1
    11     4     6   ar
    12     7     6   ar
    13    13    14    1
    14     6     5    1
