@<TRIPOS>MOLECULE
/tmp/ewbell/vina_2h6b_2h6b_lig/vina/vina2.pdbqt
 14 14 0 0 0
SMALL
GASTEIGER

@<TRIPOS>ATOM
      1  C3        62.4430   84.2510   15.1890 C.ar  1921  INH1921    -0.0460
      2  C4        62.5150   83.0080   14.6200 C.ar  1921  INH1921     0.0100
      3  C5        61.8410   82.6720   13.5810 C.ar  1921  INH1921     0.0390
      4  C6        60.9320   83.6050   12.8720 C.ar  1921  INH1921     0.0870
      5 Cl1        59.8440   86.2380   12.9140 Cl    1921  INH1921    -0.0810
      6  C7        60.8950   84.9680   13.5280 C.ar  1921  INH1921     0.0670
      7  C8        61.6310   85.2130   14.6450 C.ar  1921  INH1921     0.0340
      8  C2        63.2880   84.5880   16.4430 C.3   1921  INH1921     0.1480
      9  C1        63.9290   83.4070   17.1480 C.2   1921  INH1921     0.1430
     10  O1        65.1800   83.2810   16.9570 O.2   1921  INH1921    -0.6500
     11  O2        63.2750   82.6030   17.8970 O.3   1921  INH1921    -0.7760
     12  H         63.6290   82.3430   18.7250 H     1921  INH1921     0.1670
     13  O3        60.1630   83.2900   11.7330 O.3   1921  INH1921    -0.3590
     14  H5        59.2620   83.5530   11.8760 H     1921  INH1921     0.2170
@<TRIPOS>BOND
     1    13    14    1
     2    13     4    1
     3     4     6   ar
     4     4     3   ar
     5     5     6    1
     6     6     7   ar
     7     3     2   ar
     8     2     1   ar
     9     7     1   ar
    10     1     8    1
    11     8     9    1
    12    10     9    2
    13     9    11    1
    14    11    12    1
