@<TRIPOS>MOLECULE
/tmp/ewbell/vina_2h6b_2h6b_lig/vina/vina3.pdbqt
 14 14 0 0 0
SMALL
GASTEIGER

@<TRIPOS>ATOM
      1  C3        62.9450   93.6210   26.2180 C.ar  1921  INH1921    -0.0460
      2  C4        63.2560   92.8800   25.1100 C.ar  1921  INH1921     0.0100
      3  C5        64.2640   93.1300   24.3580 C.ar  1921  INH1921     0.0390
      4  C6        65.2160   94.2370   24.6250 C.ar  1921  INH1921     0.0870
      5 Cl1        65.7750   96.4230   26.3630 Cl    1921  INH1921    -0.0810
      6  C7        64.8400   95.0190   25.8640 C.ar  1921  INH1921     0.0670
      7  C8        63.7320   94.6850   26.5780 C.ar  1921  INH1921     0.0340
      8  C2        61.7120   93.2590   27.0820 C.3   1921  INH1921     0.1480
      9  C1        60.4190   93.9680   26.7230 C.2   1921  INH1921     0.1430
     10  O1        59.4120   93.2070   26.5740 O.2   1921  INH1921    -0.6500
     11  O2        60.3310   95.2370   26.5970 O.3   1921  INH1921    -0.7760
     12  H         60.9180   95.6920   26.0250 H     1921  INH1921     0.1670
     13  O3        66.3340   94.5620   23.8310 O.3   1921  INH1921    -0.3590
     14  H5        66.5850   95.4650   23.9920 H     1921  INH1921     0.2170
@<TRIPOS>BOND
     1    13    14    1
     2    13     4    1
     3     3     4   ar
     4     3     2   ar
     5     4     6   ar
     6     2     1   ar
     7     6     5    1
     8     6     7   ar
     9    12    11    1
    10     1     7   ar
    11     1     8    1
    12    10     9    2
    13    11     9    1
    14     9     8    1
