@<TRIPOS>MOLECULE
/tmp/ewbell/vina_2h6b_2h6b_lig/vina/vina5.pdbqt
 14 14 0 0 0
SMALL
GASTEIGER

@<TRIPOS>ATOM
      1  C3        62.9550   93.1920   26.1570 C.ar  1921  INH1921    -0.0460
      2  C4        63.3680   92.5540   25.0190 C.ar  1921  INH1921     0.0100
      3  C5        64.3490   92.9640   24.3020 C.ar  1921  INH1921     0.0390
      4  C6        65.1570   94.1600   24.6460 C.ar  1921  INH1921     0.0870
      5 Cl1        65.4250   96.2990   26.5070 Cl    1921  INH1921    -0.0810
      6  C7        64.6730   94.8230   25.9150 C.ar  1921  INH1921     0.0670
      7  C8        63.6030   94.3220   26.5880 C.ar  1921  INH1921     0.0340
      8  C2        61.7620   92.6390   26.9760 C.3   1921  INH1921     0.1480
      9  C1        61.7590   91.1400   27.2150 C.2   1921  INH1921     0.1430
     10  O1        62.6020   90.7320   28.0740 O.2   1921  INH1921    -0.6500
     11  O2        60.9600   90.3410   26.6190 O.3   1921  INH1921    -0.7760
     12  H         60.3500   90.6720   25.9880 H     1921  INH1921     0.1670
     13  O3        66.2400   94.6590   23.8930 O.3   1921  INH1921    -0.3590
     14  H5        66.6860   93.9390   23.4640 H     1921  INH1921     0.2170
@<TRIPOS>BOND
     1    14    13    1
     2    13     4    1
     3     3     4   ar
     4     3     2   ar
     5     4     6   ar
     6     2     1   ar
     7     6     5    1
     8     6     7   ar
     9    12    11    1
    10     1     7   ar
    11     1     8    1
    12    11     9    1
    13     8     9    1
    14     9    10    2
