@<TRIPOS>MOLECULE
/tmp/ewbell/vina_2h6b_2h6b_lig/vina/vina1.pdbqt
 14 14 0 0 0
SMALL
GASTEIGER

@<TRIPOS>ATOM
      1  C3        62.6710   84.2700   14.1510 C.ar  1921  INH1921    -0.0460
      2  C4        63.9790   84.6700   14.0970 C.ar  1921  INH1921     0.0100
      3  C5        64.8380   84.3860   15.0070 C.ar  1921  INH1921     0.0390
      4  C6        64.5080   83.5720   16.2020 C.ar  1921  INH1921     0.0870
      5 Cl1        62.3990   82.2190   17.5570 Cl    1921  INH1921    -0.0810
      6  C7        63.0580   83.1440   16.2130 C.ar  1921  INH1921     0.0670
      7  C8        62.2230   83.5210   15.2090 C.ar  1921  INH1921     0.0340
      8  C2        61.6890   84.6480   13.0140 C.3   1921  INH1921     0.1480
      9  C1        61.1770   83.4960   12.1690 C.2   1921  INH1921     0.1430
     10  O1        62.0810   82.7670   11.6500 O.2   1921  INH1921    -0.6500
     11  O2        59.9340   83.2520   12.0010 O.3   1921  INH1921    -0.7760
     12  H         59.3130   83.9550   12.0190 H     1921  INH1921     0.1670
     13  O3        65.4070   83.2360   17.2350 O.3   1921  INH1921    -0.3590
     14  H5        64.9190   83.0150   18.0200 H     1921  INH1921     0.2170
@<TRIPOS>BOND
     1    10     9    2
     2    11    12    1
     3    11     9    1
     4     9     8    1
     5     8     1    1
     6     2     1   ar
     7     2     3   ar
     8     1     7   ar
     9     3     4   ar
    10     7     6   ar
    11     4     6   ar
    12     4    13    1
    13     6     5    1
    14    13    14    1
