@<TRIPOS>MOLECULE
./ligand/1hnn_lig.pdb
 27 28 0 0 0
SMALL
GASTEIGER

@<TRIPOS>ATOM
      1  C1        28.3480   46.0370   16.7830 C.ar  264  INH264     -0.0561
      2  C2        27.8990   45.5320   15.5700 C.ar  264  INH264     -0.0351
      3  C3        27.8220   44.1470   15.3850 C.ar  264  INH264      0.1055
      4  C4        28.1930   43.2860   16.4100 C.ar  264  INH264     -0.0269
      5  S1        27.2610   43.4900   13.8470 S.O2  264  INH264      0.0560
      6  C5        28.6420   43.7900   17.6160 C.ar  264  INH264      0.0022
      7  C6        28.7200   45.1740   17.8070 C.ar  264  INH264     -0.0340
      8  O1        27.4850   44.4300   12.7700 O.2   264  INH264     -0.1533
      9  O2        25.8660   43.1330   13.8730 O.2   264  INH264     -0.1533
     10  N1        28.1050   42.1870   13.5730 N.3   264  INH264     -0.2035
     11  C7        28.9650   42.8430   18.7440 C.3   264  INH264     -0.0074
     12  C8        29.2110   44.8480   20.1940 C.3   264  INH264     -0.0293
     13  C9        29.4880   45.7050   18.9780 C.3   264  INH264      0.0131
     14  N2        29.7000   43.4830   19.8600 N.4   264  INH264      0.2305
     15  H1        28.4090   47.1090   16.9320 H     264  INH264      0.0621
     16  H2        27.6100   46.2060   14.7720 H     264  INH264      0.0637
     17  H3        28.1300   42.2140   16.2630 H     264  INH264      0.0642
     18  H4        27.9450   41.6530   12.7430 H     264  INH264      0.1442
     19  H5        28.8000   41.8950   14.2290 H     264  INH264      0.1442
     20  H6        29.5810   42.0240   18.3450 H     264  INH264      0.0867
     21  H7        28.0220   42.4350   19.1370 H     264  INH264      0.0867
     22  H8        28.1320   44.8250   20.4070 H     264  INH264      0.0817
     23  H9        29.7490   45.2420   21.0690 H     264  INH264      0.0817
     24  H10       29.1770   46.7410   19.1810 H     264  INH264      0.0365
     25  H11       30.5640   45.6830   18.7510 H     264  INH264      0.0365
     26  H12       30.6730   43.5470   19.6050 H     264  INH264      0.2017
     27  H13       29.6050   42.9020   20.6780 H     264  INH264      0.2017
@<TRIPOS>BOND
     1     1    15    1
     2     1     7   ar
     3     1     2   ar
     4     2    16    1
     5     2     3   ar
     6     3     5    1
     7     3     4   ar
     8     4    17    1
     9     4     6   ar
    10     5    10    1
    11     5     9    2
    12     5     8    2
    13     6    11    1
    14     6     7   ar
    15     7    13    1
    16    10    19    1
    17    10    18    1
    18    11    14    1
    19    11    21    1
    20    11    20    1
    21    12    13    1
    22    12    23    1
    23    12    22    1
    24    12    14    1
    25    13    25    1
    26    13    24    1
    27    14    27    1
    28    14    26    1
