@<TRIPOS>MOLECULE
/tmp/ewbell/vina_1hnn_1hnn_lig/vina/vina1.pdbqt
 18 19 0 0 0
SMALL
GASTEIGER

@<TRIPOS>ATOM
      1  C1        28.5790   46.0250   16.6960 C.ar  264  INH264      0.0090
      2  C2        28.1950   45.4030   15.5160 C.ar  264  INH264      0.0260
      3  C3        28.0000   44.0170   15.4980 C.ar  264  INH264      0.0800
      4  C4        28.1900   43.2730   16.6550 C.ar  264  INH264      0.0340
      5  C5        28.5740   43.8930   17.8290 C.ar  264  INH264     -0.0250
      6  C6        28.7690   45.2780   17.8530 C.ar  264  INH264     -0.0490
      7  C7        28.6980   43.0810   19.0940 C.3   264  INH264      0.2710
      8  C8        29.0060   45.2340   20.3000 C.3   264  INH264      0.2370
      9  C9        29.4750   45.8940   19.0220 C.3   264  INH264      0.0660
     10  N2        29.3870   43.8000   20.1910 N.4   264  INH264     -0.0710
     11  H12       30.3810   43.7460   20.0320 H     264  INH264      0.2770
     12  H13       29.1610   43.3440   21.0610 H     264  INH264      0.2770
     13  S1        27.5200   43.2110   14.0050 S.O2  264  INH264      0.2560
     14  O2        28.0490   41.8750   13.9010 O.2   264  INH264     -0.2010
     15  O1        26.0790   43.1560   13.8860 O.2   264  INH264     -0.2010
     16  N1        28.0990   44.0700   12.8170 N.3   264  INH264     -0.3240
     17  H5        28.9420   44.5940   12.9420 H     264  INH264      0.1690
     18  H4        27.6230   44.0930   11.9380 H     264  INH264      0.1690
@<TRIPOS>BOND
     1    18    16    1
     2    16    17    1
     3    16    13    1
     4    15    13    2
     5    14    13    2
     6    13     3    1
     7     3     2   ar
     8     3     4   ar
     9     2     1   ar
    10     4     5   ar
    11     1     6   ar
    12     5     6   ar
    13     5     7    1
    14     6     9    1
    15     9     8    1
    16     7    10    1
    17    11    10    1
    18    10     8    1
    19    10    12    1
