@<TRIPOS>MOLECULE
/tmp/ewbell/vina_1hnn_1hnn_lig/vina/vina3.pdbqt
 18 19 0 0 0
SMALL
GASTEIGER

@<TRIPOS>ATOM
      1  C1        28.8860   55.4070   25.9810 C.ar  264  INH264      0.0090
      2  C2        29.3870   54.9320   24.7760 C.ar  264  INH264      0.0260
      3  C3        30.5940   54.2240   24.7610 C.ar  264  INH264      0.0800
      4  C4        31.2850   54.0010   25.9460 C.ar  264  INH264      0.0340
      5  C5        30.7870   54.4770   27.1440 C.ar  264  INH264     -0.0250
      6  C6        29.5790   55.1840   27.1650 C.ar  264  INH264     -0.0490
      7  C7        31.5080   54.1570   28.4290 C.3   264  INH264      0.2710
      8  C8        29.5630   55.1450   29.6230 C.3   264  INH264      0.2370
      9  C9        29.2080   55.9540   28.3950 C.3   264  INH264      0.0660
     10  N2        31.0390   54.9580   29.5840 N.4   264  INH264     -0.0710
     11  H12       31.4740   55.8660   29.5390 H     264  INH264      0.2770
     12  H13       31.3230   54.4910   30.4310 H     264  INH264      0.2770
     13  S1        31.2470   53.6210   23.2380 S.O2  264  INH264      0.2560
     14  O2        32.3970   54.3660   22.7930 O.2   264  INH264     -0.2010
     15  O1        31.6070   52.2240   23.3460 O.2   264  INH264     -0.2010
     16  N1        30.1060   53.7740   22.1610 N.3   264  INH264     -0.3240
     17  H5        30.2820   53.5280   21.2080 H     264  INH264      0.1690
     18  H4        29.2070   54.1170   22.4310 H     264  INH264      0.1690
@<TRIPOS>BOND
     1    17    16    1
     2    16    18    1
     3    16    13    1
     4    14    13    2
     5    13    15    2
     6    13     3    1
     7     3     2   ar
     8     3     4   ar
     9     2     1   ar
    10     4     5   ar
    11     1     6   ar
    12     5     6   ar
    13     5     7    1
    14     6     9    1
    15     9     8    1
    16     7    10    1
    17    11    10    1
    18    10     8    1
    19    10    12    1
