@<TRIPOS>MOLECULE
/tmp/ewbell/vina_1hnn_1hnn_lig/vina/vina4.pdbqt
 18 19 0 0 0
SMALL
GASTEIGER

@<TRIPOS>ATOM
      1  C1        29.4380   52.5590   24.3630 C.ar  264  INH264      0.0090
      2  C2        29.1230   51.9710   23.1450 C.ar  264  INH264      0.0260
      3  C3        29.9540   52.1870   22.0390 C.ar  264  INH264      0.0800
      4  C4        31.0840   52.9840   22.1630 C.ar  264  INH264      0.0340
      5  C5        31.3950   53.5710   23.3750 C.ar  264  INH264     -0.0250
      6  C6        30.5690   53.3570   24.4840 C.ar  264  INH264     -0.0490
      7  C7        32.6680   54.3680   23.5110 C.3   264  INH264      0.2710
      8  C8        32.2040   54.4610   25.9520 C.3   264  INH264      0.2370
      9  C9        30.7310   54.2290   25.6910 C.3   264  INH264      0.0660
     10  N2        32.7320   55.1700   24.7550 N.4   264  INH264     -0.0710
     11  H12       32.1930   56.0100   24.6200 H     264  INH264      0.2770
     12  H13       33.6940   55.4120   24.9280 H     264  INH264      0.2770
     13  S1        29.5630   51.4530   20.4830 S.O2  264  INH264      0.2560
     14  O2        30.3300   52.0110   19.3990 O.2   264  INH264     -0.2010
     15  O1        29.7720   50.0220   20.5180 O.2   264  INH264     -0.2010
     16  N1        28.0360   51.7410   20.2140 N.3   264  INH264     -0.3240
     17  H5        27.5010   51.1120   19.6520 H     264  INH264      0.1690
     18  H4        27.6040   52.5530   20.6070 H     264  INH264      0.1690
@<TRIPOS>BOND
     1    14    13    2
     2    17    16    1
     3    16    13    1
     4    16    18    1
     5    13    15    2
     6    13     3    1
     7     3     4   ar
     8     3     2   ar
     9     4     5   ar
    10     2     1   ar
    11     5     7    1
    12     5     6   ar
    13     7    10    1
    14     1     6   ar
    15     6     9    1
    16    11    10    1
    17    10    12    1
    18    10     8    1
    19     9     8    1
