@<TRIPOS>MOLECULE
/tmp/ewbell/vina_1hnn_1hnn_lig/vina/vina2.pdbqt
 18 19 0 0 0
SMALL
GASTEIGER

@<TRIPOS>ATOM
      1  C1        31.3050   54.1990   26.7800 C.ar  264  INH264      0.0090
      2  C2        31.5080   53.7090   25.4970 C.ar  264  INH264      0.0260
      3  C3        30.5700   53.9860   24.4960 C.ar  264  INH264      0.0800
      4  C4        29.4440   54.7460   24.7880 C.ar  264  INH264      0.0340
      5  C5        29.2420   55.2300   26.0660 C.ar  264  INH264     -0.0250
      6  C6        30.1780   54.9580   27.0710 C.ar  264  INH264     -0.0490
      7  C7        28.0570   56.1190   26.3460 C.3   264  INH264      0.2710
      8  C8        29.0380   56.5130   28.5970 C.3   264  INH264      0.2370
      9  C9        29.8070   55.2130   28.4990 C.3   264  INH264      0.0660
     10  N2        27.8010   56.3250   27.7910 N.4   264  INH264     -0.0710
     11  H12       27.3100   55.5190   28.1460 H     264  INH264      0.2770
     12  H13       27.2240   57.1440   27.8990 H     264  INH264      0.2770
     13  S1        30.8100   53.3640   22.8630 S.O2  264  INH264      0.2560
     14  O2        31.9990   53.8860   22.2400 O.2   264  INH264     -0.2010
     15  O1        30.8750   51.9190   22.8630 O.2   264  INH264     -0.2010
     16  N1        29.5610   53.8190   22.0140 N.3   264  INH264     -0.3240
     17  H5        28.7540   53.2320   21.9570 H     264  INH264      0.1690
     18  H4        29.5770   54.6950   21.5330 H     264  INH264      0.1690
@<TRIPOS>BOND
     1    18    16    1
     2    17    16    1
     3    16    13    1
     4    14    13    2
     5    15    13    2
     6    13     3    1
     7     3     4   ar
     8     3     2   ar
     9     4     5   ar
    10     2     1   ar
    11     5     7    1
    12     5     6   ar
    13     7    10    1
    14     1     6   ar
    15     6     9    1
    16    10    12    1
    17    10    11    1
    18    10     8    1
    19     9     8    1
