@<TRIPOS>MOLECULE
/tmp/ewbell/vina_1hnn_1hnn_lig/vina/vina5.pdbqt
 18 19 0 0 0
SMALL
GASTEIGER

@<TRIPOS>ATOM
      1  C1        27.8270   42.5430   17.9570 C.ar  264  INH264      0.0090
      2  C2        27.4710   42.4390   16.6190 C.ar  264  INH264      0.0260
      3  C3        27.7020   43.5170   15.7570 C.ar  264  INH264      0.0800
      4  C4        28.2840   44.6820   16.2400 C.ar  264  INH264      0.0340
      5  C5        28.6360   44.7850   17.5730 C.ar  264  INH264     -0.0250
      6  C6        28.4080   43.7100   18.4390 C.ar  264  INH264     -0.0490
      7  C7        29.3380   46.0260   18.0630 C.3   264  INH264      0.2710
      8  C8        29.6760   44.8350   20.2200 C.3   264  INH264      0.2370
      9  C9        28.4980   43.9340   19.9170 C.3   264  INH264      0.0660
     10  N2        29.3940   46.1280   19.5400 N.4   264  INH264     -0.0710
     11  H12       28.5060   46.4740   19.8690 H     264  INH264      0.2770
     12  H13       30.1200   46.7820   19.7870 H     264  INH264      0.2770
     13  S1        27.2490   43.4030   14.0560 S.O2  264  INH264      0.2560
     14  O2        25.8240   43.3160   13.8670 O.2   264  INH264     -0.2010
     15  O1        27.7530   44.5350   13.3090 O.2   264  INH264     -0.2010
     16  N1        27.9090   42.0850   13.4960 N.3   264  INH264     -0.3240
     17  H5        28.6560   42.1430   12.8350 H     264  INH264      0.1690
     18  H4        27.5790   41.1930   13.8020 H     264  INH264      0.1690
@<TRIPOS>BOND
     1    17    16    1
     2    15    13    2
     3    16    18    1
     4    16    13    1
     5    14    13    2
     6    13     3    1
     7     3     4   ar
     8     3     2   ar
     9     4     5   ar
    10     2     1   ar
    11     5     7    1
    12     5     6   ar
    13     1     6   ar
    14     7    10    1
    15     6     9    1
    16    10    12    1
    17    10    11    1
    18    10     8    1
    19     9     8    1
