@<TRIPOS>MOLECULE
./ligand/2e2r_lig.pdb
 33 34 0 0 0
SMALL
GASTEIGER

@<TRIPOS>ATOM
      1  C1       -15.1840   -5.2140  -27.6120 C.ar  459  INH459     -0.0543
      2  C2       -17.0320   -5.1930  -26.0930 C.ar  459  INH459     -0.0543
      3  C3       -17.4580   -3.3050  -29.6390 C.ar  459  INH459     -0.0543
      4  C4       -15.3450   -2.1930  -29.4950 C.ar  459  INH459     -0.0543
      5  C5       -14.9260   -6.5570  -27.3240 C.ar  459  INH459     -0.0199
      6  C6       -16.7690   -6.5360  -25.7910 C.ar  459  INH459     -0.0199
      7  C7       -17.4560   -3.1530  -31.0140 C.ar  459  INH459     -0.0199
      8  C8       -15.3570   -2.0410  -30.8900 C.ar  459  INH459     -0.0199
      9  C9       -16.2410   -4.5020  -27.0230 C.ar  459  INH459     -0.0372
     10  C10      -16.4130   -2.8260  -28.8560 C.ar  459  INH459     -0.0372
     11  C11      -15.7110   -7.2250  -26.3890 C.ar  459  INH459      0.1169
     12  C12      -16.4030   -2.5220  -31.6510 C.ar  459  INH459      0.1169
     13  C13      -17.8150   -2.5040  -26.8370 C.3   459  INH459     -0.0517
     14  C14      -15.4060   -2.2610  -26.5980 C.3   459  INH459     -0.0517
     15  C15      -16.4780   -3.0370  -27.3560 C.3   459  INH459      0.0151
     16  O1       -15.4450   -8.5040  -26.0930 O.3   459  INH459     -0.5068
     17  O2       -16.4200   -2.3820  -32.9910 O.3   459  INH459     -0.5068
     18  H1       -14.5440   -4.7030  -28.3160 H     459  INH459      0.0622
     19  H2       -17.8510   -4.6850  -25.6050 H     459  INH459      0.0622
     20  H3       -18.2880   -3.8060  -29.1640 H     459  INH459      0.0622
     21  H4       -14.5120   -1.8210  -28.9170 H     459  INH459      0.0622
     22  H5       -14.1210   -7.0740  -27.8250 H     459  INH459      0.0654
     23  H6       -17.3990   -7.0500  -25.0800 H     459  INH459      0.0654
     24  H7       -18.2840   -3.5300  -31.5950 H     459  INH459      0.0654
     25  H8       -14.5340   -1.5390  -31.3760 H     459  INH459      0.0654
     26  H9       -17.7610   -2.3760  -25.7460 H     459  INH459      0.0241
     27  H10      -18.0310   -1.5340  -27.3090 H     459  INH459      0.0241
     28  H11      -18.6150   -3.2180  -27.0830 H     459  INH459      0.0241
     29  H12      -14.5490   -2.0740  -27.2620 H     459  INH459      0.0241
     30  H13      -15.8210   -1.3010  -26.2560 H     459  INH459      0.0241
     31  H14      -15.0750   -2.8480  -25.7290 H     459  INH459      0.0241
     32  H15      -15.3820   -8.6050  -25.1510 H     459  INH459      0.2921
     33  H16      -17.2130   -2.7720  -33.3400 H     459  INH459      0.2921
@<TRIPOS>BOND
     1     1     9   ar
     2     1    18    1
     3     1     5   ar
     4     2     9   ar
     5     2     6   ar
     6     2    19    1
     7     3     7   ar
     8     3    20    1
     9     3    10   ar
    10     4    21    1
    11     4    10   ar
    12     4     8   ar
    13     5    22    1
    14     5    11   ar
    15     6    11   ar
    16     6    23    1
    17     7    12   ar
    18     7    24    1
    19     8    25    1
    20     8    12   ar
    21     9    15    1
    22    10    15    1
    23    11    16    1
    24    12    17    1
    25    13    15    1
    26    13    28    1
    27    13    27    1
    28    13    26    1
    29    14    15    1
    30    14    31    1
    31    14    30    1
    32    14    29    1
    33    16    32    1
    34    17    33    1
