@<TRIPOS>MOLECULE
/tmp/ewbell/vina_2e2r_2e2r_lig/vina/vina2.pdbqt
 19 20 0 0 0
SMALL
GASTEIGER

@<TRIPOS>ATOM
      1  C13      -15.5890   -2.0550  -26.6840 C.3   459  INH459      0.0250
      2  C14      -17.8890   -2.8360  -26.8240 C.3   459  INH459      0.0250
      3  C15      -16.4940   -3.0630  -27.3960 C.3   459  INH459      0.0070
      4  C9       -16.6150   -2.8150  -28.8920 C.ar  459  INH459     -0.0450
      5  C1       -17.8090   -3.0940  -29.5740 C.ar  459  INH459      0.0110
      6  C5       -17.9640   -2.8700  -30.9450 C.ar  459  INH459      0.0370
      7  C11      -16.9210   -2.3120  -31.6750 C.ar  459  INH459      0.0650
      8  C6       -15.7220   -2.0280  -31.0170 C.ar  459  INH459      0.0370
      9  C2       -15.5670   -2.2660  -29.6450 C.ar  459  INH459      0.0110
     10  O1       -17.0800   -2.0710  -32.9840 O.3   459  INH459     -0.3610
     11  H15      -16.6500   -1.2570  -33.2110 H     459  INH459      0.2170
     12  C10      -15.9690   -4.4620  -27.1400 C.ar  459  INH459     -0.0450
     13  C3       -16.4050   -5.1370  -26.0040 C.ar  459  INH459      0.0110
     14  C7       -15.9590   -6.4120  -25.7080 C.ar  459  INH459      0.0370
     15  C12      -15.0540   -7.0510  -26.5360 C.ar  459  INH459      0.0650
     16  C8       -14.6090   -6.3960  -27.6660 C.ar  459  INH459      0.0370
     17  C4       -15.0510   -5.1010  -27.9750 C.ar  459  INH459      0.0110
     18  O2       -14.6320   -8.2940  -26.2320 O.3   459  INH459     -0.3610
     19  H16      -13.8300   -8.4800  -26.7050 H     459  INH459      0.2170
@<TRIPOS>BOND
     1    11    10    1
     2    10     7    1
     3     7     8   ar
     4     7     6   ar
     5     8     9   ar
     6     6     5   ar
     7     9     4   ar
     8     5     4   ar
     9     4     3    1
    10    17    16   ar
    11    17    12   ar
    12    16    15   ar
    13     3    12    1
    14     3     2    1
    15     3     1    1
    16    12    13   ar
    17    19    18    1
    18    15    18    1
    19    15    14   ar
    20    13    14   ar
