@<TRIPOS>MOLECULE
/tmp/ewbell/vina_2e2r_2e2r_lig/vina/vina4.pdbqt
 19 20 0 0 0
SMALL
GASTEIGER

@<TRIPOS>ATOM
      1  C13      -13.2290  -13.1800  -20.2920 C.3   459  INH459      0.0250
      2  C14      -12.4810  -15.2030  -21.4180 C.3   459  INH459      0.0250
      3  C15      -12.9820  -13.7860  -21.6760 C.3   459  INH459      0.0070
      4  C9       -14.2490  -13.9400  -22.5030 C.ar  459  INH459     -0.0450
      5  C1       -15.2230  -12.9290  -22.5240 C.ar  459  INH459      0.0110
      6  C5       -16.3950  -13.0280  -23.2800 C.ar  459  INH459      0.0370
      7  C11      -16.6070  -14.1440  -24.0820 C.ar  459  INH459      0.0650
      8  C6       -15.6510  -15.1630  -24.0750 C.ar  459  INH459      0.0370
      9  C2       -14.4840  -15.0660  -23.3060 C.ar  459  INH459      0.0110
     10  O1       -17.7180  -14.2240  -24.8270 O.3   459  INH459     -0.3610
     11  H15      -17.8840  -15.1310  -25.0520 H     459  INH459      0.2170
     12  C10      -11.9760  -12.9270  -22.4170 C.ar  459  INH459     -0.0450
     13  C3       -11.4160  -13.4240  -23.5890 C.ar  459  INH459      0.0110
     14  C7       -10.4860  -12.6950  -24.3080 C.ar  459  INH459      0.0370
     15  C12      -10.0810  -11.4470  -23.8740 C.ar  459  INH459      0.0650
     16  C8       -10.6260  -10.9380  -22.7110 C.ar  459  INH459      0.0370
     17  C4       -11.5660  -11.6690  -21.9710 C.ar  459  INH459      0.0110
     18  O2        -9.1760  -10.7510  -24.5880 O.3   459  INH459     -0.3610
     19  H16       -8.4610  -11.3240  -24.8380 H     459  INH459      0.2170
@<TRIPOS>BOND
     1    11    10    1
     2    19    18    1
     3    10     7    1
     4    18    15    1
     5    14    15   ar
     6    14    13   ar
     7     7     8   ar
     8     7     6   ar
     9     8     9   ar
    10    15    16   ar
    11    13    12   ar
    12     9     4   ar
    13     6     5   ar
    14    16    17   ar
    15     5     4   ar
    16     4     3    1
    17    12    17   ar
    18    12     3    1
    19     3     2    1
    20     3     1    1
