@<TRIPOS>MOLECULE
/tmp/ewbell/vina_2e2r_2e2r_lig/vina/vina3.pdbqt
 19 20 0 0 0
SMALL
GASTEIGER

@<TRIPOS>ATOM
      1  C13      -17.7130   -2.5990  -26.4040 C.3   459  INH459      0.0250
      2  C14      -15.3420   -2.5740  -25.8600 C.3   459  INH459      0.0250
      3  C15      -16.3570   -3.1610  -26.8350 C.3   459  INH459      0.0070
      4  C9       -16.2520   -4.6710  -26.6830 C.ar  459  INH459     -0.0450
      5  C1       -17.3340   -5.4240  -26.2020 C.ar  459  INH459      0.0110
      6  C5       -17.2810   -6.8140  -26.0590 C.ar  459  INH459      0.0370
      7  C11      -16.1340   -7.5030  -26.4380 C.ar  459  INH459      0.0650
      8  C6       -15.0440   -6.7730  -26.9180 C.ar  459  INH459      0.0370
      9  C2       -15.0970   -5.3790  -27.0480 C.ar  459  INH459      0.0110
     10  O1       -16.0950   -8.8380  -26.3260 O.3   459  INH459     -0.3610
     11  H15      -16.7020   -9.2260  -26.9440 H     459  INH459      0.2170
     12  C10      -16.0940   -2.7630  -28.2750 C.ar  459  INH459     -0.0450
     13  C3       -14.9010   -2.1150  -28.5760 C.ar  459  INH459      0.0110
     14  C7       -14.6030   -1.7170  -29.8670 C.ar  459  INH459      0.0370
     15  C12      -15.4950   -1.9490  -30.8980 C.ar  459  INH459      0.0650
     16  C8       -16.6850   -2.5900  -30.6180 C.ar  459  INH459      0.0370
     17  C4       -17.0010   -2.9940  -29.3120 C.ar  459  INH459      0.0110
     18  O2       -15.1870   -1.5560  -32.1490 O.3   459  INH459     -0.3610
     19  H16      -15.1100   -2.3190  -32.7110 H     459  INH459      0.2170
@<TRIPOS>BOND
     1    19    18    1
     2    18    15    1
     3    15    16   ar
     4    15    14   ar
     5    16    17   ar
     6    14    13   ar
     7    17    12   ar
     8    13    12   ar
     9    12     3    1
    10     9     8   ar
    11     9     4   ar
    12    11    10    1
    13     8     7   ar
    14     3     4    1
    15     3     1    1
    16     3     2    1
    17     4     5   ar
    18     7    10    1
    19     7     6   ar
    20     5     6   ar
