@<TRIPOS>MOLECULE
/tmp/ewbell/vina_2e2r_2e2r_lig/vina/vina5.pdbqt
 19 20 0 0 0
SMALL
GASTEIGER

@<TRIPOS>ATOM
      1  C13      -12.9800    9.1730  -36.9900 C.3   459  INH459      0.0250
      2  C14      -13.5870    8.3930  -34.7670 C.3   459  INH459      0.0250
      3  C15      -12.6790    8.0890  -35.9540 C.3   459  INH459      0.0070
      4  C9       -13.0580    6.6900  -36.4160 C.ar  459  INH459     -0.0450
      5  C1       -12.7930    6.2670  -37.7280 C.ar  459  INH459      0.0110
      6  C5       -13.1150    4.9870  -38.1870 C.ar  459  INH459      0.0370
      7  C11      -13.6840    4.0640  -37.3160 C.ar  459  INH459      0.0650
      8  C6       -13.9580    4.4640  -36.0050 C.ar  459  INH459      0.0370
      9  C2       -13.6450    5.7520  -35.5530 C.ar  459  INH459      0.0110
     10  O1       -13.9670    2.8280  -37.7500 O.3   459  INH459     -0.3610
     11  H15      -13.3210    2.2190  -37.4150 H     459  INH459      0.2170
     12  C10      -11.2050    8.1400  -35.6010 C.ar  459  INH459     -0.0450
     13  C3       -10.8260    7.8580  -34.2930 C.ar  459  INH459      0.0110
     14  C7        -9.4990    7.8950  -33.9040 C.ar  459  INH459      0.0370
     15  C12       -8.5090    8.2250  -34.8100 C.ar  459  INH459      0.0650
     16  C8        -8.8670    8.5100  -36.1130 C.ar  459  INH459      0.0370
     17  C4       -10.2090    8.4800  -36.5190 C.ar  459  INH459      0.0110
     18  O2        -7.2220    8.2550  -34.4130 O.3   459  INH459     -0.3610
     19  H16       -6.6780    8.5740  -35.1240 H     459  INH459      0.2170
@<TRIPOS>BOND
     1     6     5   ar
     2     6     7   ar
     3    10    11    1
     4    10     7    1
     5     5     4   ar
     6     7     8   ar
     7     1     3    1
     8    17    16   ar
     9    17    12   ar
    10     4     3    1
    11     4     9   ar
    12    16    15   ar
    13     8     9   ar
    14     3    12    1
    15     3     2    1
    16    12    13   ar
    17    19    18    1
    18    15    18    1
    19    15    14   ar
    20    13    14   ar
