@<TRIPOS>MOLECULE
/tmp/ewbell/vina_2e2r_2e2r_lig/vina/vina1.pdbqt
 19 20 0 0 0
SMALL
GASTEIGER

@<TRIPOS>ATOM
      1  C13      -18.0050   -2.6730  -26.8010 C.3   459  INH459      0.0250
      2  C14      -15.6520   -2.0760  -26.6510 C.3   459  INH459      0.0250
      3  C15      -16.6280   -2.9880  -27.3870 C.3   459  INH459      0.0070
      4  C9       -16.1610   -4.4070  -27.1030 C.ar  459  INH459     -0.0450
      5  C1       -15.1150   -4.9840  -27.8410 C.ar  459  INH459      0.0110
      6  C5       -14.6500   -6.2800  -27.6040 C.ar  459  INH459      0.0370
      7  C11      -15.2020   -7.0340  -26.5730 C.ar  459  INH459      0.0650
      8  C6       -16.2450   -6.4800  -25.8270 C.ar  459  INH459      0.0370
      9  C2       -16.7170   -5.1850  -26.0770 C.ar  459  INH459      0.0110
     10  O1       -14.7360   -8.2660  -26.3290 O.3   459  INH459     -0.3610
     11  H15      -14.5650   -8.3610  -25.4000 H     459  INH459      0.2170
     12  C10      -16.6600   -2.7390  -28.8820 C.ar  459  INH459     -0.0450
     13  C3       -17.8150   -3.0640  -29.5840 C.ar  459  INH459      0.0110
     14  C7       -17.9070   -2.8700  -30.9500 C.ar  459  INH459      0.0370
     15  C12      -16.8410   -2.3490  -31.6610 C.ar  459  INH459      0.0650
     16  C8       -15.6850   -2.0210  -30.9810 C.ar  459  INH459      0.0370
     17  C4       -15.5780   -2.2180  -29.5960 C.ar  459  INH459      0.0110
     18  O2       -16.9500   -2.1650  -32.9900 O.3   459  INH459     -0.3610
     19  H16      -17.2160   -1.2700  -33.1660 H     459  INH459      0.2170
@<TRIPOS>BOND
     1    19    18    1
     2    18    15    1
     3    15    16   ar
     4    15    14   ar
     5    16    17   ar
     6    14    13   ar
     7    17    12   ar
     8    13    12   ar
     9    12     3    1
    10     5     6   ar
    11     5     4   ar
    12     6     7   ar
    13     3     4    1
    14     3     1    1
    15     3     2    1
    16     4     9   ar
    17     7    10    1
    18     7     8   ar
    19    10    11    1
    20     9     8   ar
