@<TRIPOS>MOLECULE
./ligand/2p4y_lig.pdb
 61 65 0 0 0
SMALL
GASTEIGER

@<TRIPOS>ATOM
      1  C1        15.7060    5.0230   15.8040 C.ar  486  INH486     -0.0189
      2  C2        14.5690    4.8940   15.0080 C.ar  486  INH486     -0.0485
      3  C3        14.7540    4.8640   13.4680 C.ar  486  INH486      0.0097
      4  C4        15.9600    4.9680   12.8790 C.ar  486  INH486      0.0537
      5  C5        17.1240    5.1010   13.7060 C.ar  486  INH486      0.0045
      6  C6        17.0010    5.1260   15.1730 C.ar  486  INH486      0.1320
      7  C7        13.6520    4.7270   12.5630 C.ar  486  INH486      0.0324
      8  C8        14.3400    4.7660   11.3250 C.ar  486  INH486      0.0264
      9  N1        15.7630    4.9160   11.4830 N.ar  486  INH486     -0.3389
     10  C9        12.1760    4.5870   12.8970 C.ar  486  INH486      0.1233
     11  C10       13.6790    4.6670    9.9520 C.3   486  INH486     -0.0236
     12  C11       16.8450    5.0030   10.4580 C.3   486  INH486      0.0501
     13  O1        18.1770    5.2480   15.8840 O.3   486  INH486     -0.4057
     14  C12       18.8370    4.1520   16.4650 C.3   486  INH486      0.5752
     15  F1        19.9500    4.6200   16.9880 F     486  INH486     -0.1328
     16  F2        19.1280    3.2360   15.5240 F     486  INH486     -0.1328
     17  F3        18.0820    3.6260   17.4220 F     486  INH486     -0.1328
     18  C13       17.1860    6.4530    9.9960 C.ar  486  INH486     -0.0060
     19  C14       16.2810    7.5630   10.3110 C.ar  486  INH486     -0.0136
     20  C15       16.5450    8.9190    9.9100 C.ar  486  INH486      0.1221
     21  C16       17.7510    9.1930    9.1630 C.ar  486  INH486     -0.0185
     22  C17       18.6650    8.1390    8.8330 C.ar  486  INH486     -0.0396
     23  C18       18.3910    6.7900    9.2440 C.ar  486  INH486      0.0461
     24 Cl1        19.5630    5.6330    8.7920 Cl    486  INH486     -0.0832
     25  O2        15.5840    9.9040   10.3050 O.3   486  INH486     -0.4778
     26  C19       15.1050   10.9540    9.4340 C.3   486  INH486      0.1974
     27  C20       14.1280   11.7970   10.2660 C.3   486  INH486     -0.0170
     28  C21       14.2750   10.4740    8.2450 C.2   486  INH486      0.3955
     29  O3        14.1880   11.0690    7.2330 O.co2 486  INH486     -0.2422
     30  O4        13.6520    9.3050    8.4960 O.co2 486  INH486     -0.2422
     31  N2        11.0630    5.2530   12.4460 N.ar  486  INH486     -0.0770
     32  O5         9.9160    4.8200   13.0360 O.2   486  INH486     -0.3539
     33  C22       10.2160    3.8320   13.9190 C.ar  486  INH486      0.1713
     34  C23       11.6320    3.6550   13.8470 C.ar  486  INH486      0.0493
     35  C24        9.3930    3.0830   14.7690 C.ar  486  INH486      0.0256
     36  C25        9.9840    2.0600   15.6400 C.ar  486  INH486      0.1237
     37  C26       11.3960    1.8370   15.6000 C.ar  486  INH486     -0.0191
     38  C27       12.2150    2.6010   14.7370 C.ar  486  INH486     -0.0454
     39  O6         9.1060    1.3610   16.4600 O.3   486  INH486     -0.4950
     40  C28        8.3730    2.0540   17.4470 C.3   486  INH486      0.0788
     41  H1        15.6190    5.0460   16.8840 H     486  INH486      0.0654
     42  H2        13.5830    4.8170   15.4530 H     486  INH486      0.0625
     43  H3        18.1030    5.1840   13.2470 H     486  INH486      0.0675
     44  H4        12.5910    4.5580   10.0760 H     486  INH486      0.0292
     45  H5        14.0770    3.7930    9.4160 H     486  INH486      0.0292
     46  H6        13.8930    5.5790    9.3750 H     486  INH486      0.0292
     47  H7        16.5290    4.4270    9.5760 H     486  INH486      0.0542
     48  H8        17.7560    4.5550   10.8820 H     486  INH486      0.0542
     49  H9        15.3760    7.3530   10.8690 H     486  INH486      0.0658
     50  H10       17.9670   10.2080    8.8480 H     486  INH486      0.0654
     51  H11       19.5660    8.3610    8.2720 H     486  INH486      0.0633
     52  H12       15.9560   11.5530    9.0780 H     486  INH486      0.0850
     53  H13       13.7310   12.6160    9.6470 H     486  INH486      0.0271
     54  H14       14.6550   12.2170   11.1360 H     486  INH486      0.0271
     55  H15       13.2980   11.1630   10.6110 H     486  INH486      0.0271
     56  H16        8.3230    3.2580   14.7840 H     486  INH486      0.0692
     57  H17       11.8400    1.0790   16.2340 H     486  INH486      0.0654
     58  H18       13.2840    2.4210   14.7190 H     486  INH486      0.0626
     59  H19        7.7350    1.3450   17.9950 H     486  INH486      0.0660
     60  H20        7.7440    2.8180   16.9670 H     486  INH486      0.0660
     61  H21        9.0690    2.5390   18.1480 H     486  INH486      0.0660
@<TRIPOS>BOND
     1     1    41    1
     2     1     6   ar
     3     1     2   ar
     4     2    42    1
     5     2     3   ar
     6     3     7   ar
     7     3     4   ar
     8     4     9   ar
     9     4     5   ar
    10     5    43    1
    11     5     6   ar
    12     6    13    1
    13     7     8   ar
    14     7    10    1
    15     8     9   ar
    16     8    11    1
    17     9    12    1
    18    10    34   ar
    19    10    31   ar
    20    11    46    1
    21    11    45    1
    22    11    44    1
    23    12    48    1
    24    12    47    1
    25    12    18    1
    26    13    14    1
    27    14    17    1
    28    14    16    1
    29    14    15    1
    30    18    23   ar
    31    18    19   ar
    32    19    49    1
    33    19    20   ar
    34    20    25    1
    35    20    21   ar
    36    21    50    1
    37    21    22   ar
    38    22    51    1
    39    22    23   ar
    40    23    24    1
    41    25    26    1
    42    26    52    1
    43    26    28    1
    44    26    27    1
    45    27    55    1
    46    27    54    1
    47    27    53    1
    48    28    30   ar
    49    28    29   ar
    50    31    32   ar
    51    32    33   ar
    52    33    35   ar
    53    33    34   ar
    54    34    38   ar
    55    35    36   ar
    56    35    56    1
    57    36    37   ar
    58    36    39    1
    59    37    38   ar
    60    37    57    1
    61    38    58    1
    62    39    40    1
    63    40    61    1
    64    40    60    1
    65    40    59    1
