@<TRIPOS>MOLECULE
/tmp/ewbell/vina_2p4y_2p4y_lig/vina/vina1.pdbqt
 42 46 0 0 0
SMALL
GASTEIGER

@<TRIPOS>ATOM
      1  C1        15.2980    4.9600   15.7730 C.ar  486  INH486      0.0380
      2  C2        14.2020    4.9130   14.9120 C.ar  486  INH486      0.0170
      3  C3        14.4710    4.9180   13.3850 C.ar  486  INH486      0.0050
      4  C4        15.7120    4.9760   12.8660 C.ar  486  INH486      0.0490
      5  C5        16.8330    5.0250   13.7580 C.ar  486  INH486      0.0670
      6  C6        16.6290    5.0150   15.2170 C.ar  486  INH486      0.0800
      7  C7        13.4160    4.8630   12.4170 C.ar  486  INH486      0.0280
      8  C8        14.1730    4.9020   11.2200 C.ar  486  INH486      0.0220
      9  N1        15.5910    4.9740   11.4600 N.ar  486  INH486     -0.3450
     10  C10       13.5850    4.8770    9.8110 C.3   486  INH486      0.0690
     11  C11       16.7310    5.0350   10.4990 C.3   486  INH486      0.1690
     12  C13       17.1270    6.4750   10.0520 C.ar  486  INH486     -0.0160
     13  C18       18.2980    6.7650    9.2310 C.ar  486  INH486      0.0420
     14  C17       18.6240    8.1080    8.8360 C.ar  486  INH486      0.0270
     15 Cl1        19.3680    5.5570    8.6730 Cl    486  INH486     -0.0840
     16  C16       17.7980    9.2020    9.2530 C.ar  486  INH486      0.0380
     17  C15       16.6280    8.9760   10.0710 C.ar  486  INH486      0.0700
     18  C14       16.3110    7.6270   10.4540 C.ar  486  INH486      0.0470
     19  O2        15.7550   10.0030   10.5530 O.3   486  INH486     -0.3360
     20  C19       15.1720   11.0240    9.7100 C.3   486  INH486      0.2220
     21  C20       14.4830   12.0210   10.6520 C.3   486  INH486      0.0510
     22  C21       14.0560   10.5370    8.7890 C.2   486  INH486      0.1700
     23  O4        14.4370   10.5060    7.4970 O.2   486  INH486     -0.6480
     24  O3        12.9910   10.2180    9.1760 O.3   486  INH486     -0.7740
     25  H         12.4340    9.6910    8.6370 H     486  INH486      0.1670
     26  C9        11.9180    4.7900   12.6660 C.ar  486  INH486      0.0810
     27  C23       11.2730    3.8350   13.5250 C.ar  486  INH486      0.0290
     28  C22        9.8670    4.0900   13.5370 C.ar  486  INH486      0.1140
     29  C27       11.7470    2.6960   14.3740 C.3   486  INH486      0.0190
     30  O5         9.6700    5.1460   12.7050 O.2   486  INH486     -0.2370
     31  C24        8.9590    3.3400   14.2940 C.2   486  INH486      0.0770
     32  N2        10.8690    5.5460   12.2020 N.ar  486  INH486     -0.2590
     33  H2        10.9790    6.3240   11.5510 H     486  INH486      0.1950
     34  C25        9.4430    2.2330   15.1260 C.2   486  INH486      0.0700
     35  C26       10.8410    1.9300   15.1440 C.2   486  INH486      0.0380
     36  O6         8.4850    1.5370   15.8530 O.2   486  INH486     -0.3560
     37  C28        8.4930    1.6080   17.2630 C.3   486  INH486      0.2100
     38  O1        17.7680    5.0560   15.9940 O.3   486  INH486     -0.2550
     39  C12       18.3550    3.9080   16.5520 C.3   486  INH486      0.5300
     40  F3        18.3710    4.0070   17.8750 F     486  INH486     -0.1440
     41  F2        17.6850    2.8090   16.1610 F     486  INH486     -0.1440
     42  F1        19.5900    3.8610   16.0980 F     486  INH486     -0.1440
@<TRIPOS>BOND
     1    23    22    2
     2    25    24    1
     3    15    13    1
     4    22    24    1
     5    22    20    1
     6    14    13   ar
     7    14    16   ar
     8    13    12   ar
     9    16    17   ar
    10    20    19    1
    11    20    21    1
    12    10     8    1
    13    12    18   ar
    14    12    11    1
    15    17    18   ar
    16    17    19    1
    17    11     9    1
    18     8     9   ar
    19     8     7   ar
    20     9     4   ar
    21    33    32    1
    22    32    26   ar
    23    32    30   ar
    24     7    26    1
    25     7     3   ar
    26    26    27   ar
    27    30    28   ar
    28     4     3   ar
    29     4     5   ar
    30     3     2   ar
    31    27    28   ar
    32    27    29    1
    33    28    31    2
    34     5     6   ar
    35    31    34    1
    36    29    35    1
    37     2     1   ar
    38    34    35    2
    39    34    36    1
    40     6     1   ar
    41     6    38    1
    42    36    37    1
    43    38    39    1
    44    42    39    1
    45    41    39    1
    46    39    40    1
