@<TRIPOS>MOLECULE
/tmp/ewbell/vina_2p4y_2p4y_lig/vina/vina5.pdbqt
 42 46 0 0 0
SMALL
GASTEIGER

@<TRIPOS>ATOM
      1  C1        17.2610    9.2100    9.1710 C.ar  486  INH486      0.0380
      2  C2        17.2180   10.2180    8.2090 C.ar  486  INH486      0.0170
      3  C3        16.1040   11.2920    8.3250 C.ar  486  INH486      0.0050
      4  C4        15.1810   11.2780    9.3050 C.ar  486  INH486      0.0490
      5  C5        15.2330   10.2370   10.2890 C.ar  486  INH486      0.0670
      6  C6        16.2760    9.1990   10.2270 C.ar  486  INH486      0.0800
      7  C7        15.9780   12.3730    7.3940 C.ar  486  INH486      0.0280
      8  C8        14.8410   13.0300    7.9280 C.ar  486  INH486      0.0220
      9  N1        14.3240   12.3810    9.1040 N.ar  486  INH486     -0.3450
     10  C10       14.2030   14.2890    7.3450 C.3   486  INH486      0.0690
     11  C11       13.1570   12.7310    9.9670 C.3   486  INH486      0.1690
     12  C13       13.3620   14.0000   10.8510 C.ar  486  INH486     -0.0160
     13  C18       12.3220   15.0010   11.0650 C.ar  486  INH486      0.0420
     14  C17       12.5510   16.1540   11.8920 C.ar  486  INH486      0.0270
     15 Cl1        10.7680   14.8970   10.3670 Cl    486  INH486     -0.0840
     16  C16       13.8230   16.3460   12.5250 C.ar  486  INH486      0.0380
     17  C15       14.8910   15.3900   12.3440 C.ar  486  INH486      0.0700
     18  C14       14.6470   14.2380   11.5180 C.ar  486  INH486      0.0470
     19  O2        16.1980   15.5040   12.9160 O.3   486  INH486     -0.3360
     20  C19       16.8560   16.7660   13.1720 C.3   486  INH486      0.2220
     21  C20       18.1790   16.7310   12.3950 C.3   486  INH486      0.0510
     22  C21       17.2740   16.9900   14.6240 C.2   486  INH486      0.1700
     23  O4        17.9350   18.1520   14.7910 O.2   486  INH486     -0.6480
     24  O3        17.0330   16.2310   15.4910 O.3   486  INH486     -0.7740
     25  H         17.5720   16.2070   16.2570 H     486  INH486      0.1670
     26  C9        16.8490   12.6770    6.1860 C.ar  486  INH486      0.0810
     27  C23       18.1910   13.1900    6.2470 C.ar  486  INH486      0.0290
     28  C22       18.7030   13.3200    4.9200 C.ar  486  INH486      0.1140
     29  C27       19.1160   13.5830    7.3570 C.3   486  INH486      0.0190
     30  O5        17.7050   12.9180    4.0910 O.2   486  INH486     -0.2370
     31  C24       19.9960   13.7800    4.6400 C.2   486  INH486      0.0770
     32  N2        16.6290   12.5470    4.8370 N.ar  486  INH486     -0.2590
     33  H2        15.7540   12.2080    4.4370 H     486  INH486      0.1950
     34  C25       20.8910   14.1530    5.7410 C.2   486  INH486      0.0700
     35  C26       20.4230   14.0490    7.0890 C.2   486  INH486      0.0380
     36  O6        22.1600   14.5960    5.3870 O.2   486  INH486     -0.3560
     37  C28       23.0660   13.6990    4.7810 C.3   486  INH486      0.2100
     38  O1        16.2500    8.2440   11.2220 O.3   486  INH486     -0.2550
     39  C12       15.8180    6.9250   11.0060 C.3   486  INH486      0.5300
     40  F3        15.2850    6.4360   12.1180 F     486  INH486     -0.1440
     41  F2        14.9340    6.8890    9.9920 F     486  INH486     -0.1440
     42  F1        16.8880    6.2290   10.6870 F     486  INH486     -0.1440
@<TRIPOS>BOND
     1    30    32   ar
     2    30    28   ar
     3    33    32    1
     4    31    28    2
     5    31    34    1
     6    37    36    1
     7    32    26   ar
     8    28    27   ar
     9    36    34    1
    10    34    35    2
    11    26    27   ar
    12    26     7    1
    13    27    29    1
    14    35    29    1
    15    10     8    1
    16     7     8   ar
    17     7     3   ar
    18     8     9   ar
    19     2     3   ar
    20     2     1   ar
    21     3     4   ar
    22     9     4   ar
    23     9    11    1
    24     1     6   ar
    25     4     5   ar
    26    11    12    1
    27    41    39    1
    28     6     5   ar
    29     6    38    1
    30    15    13    1
    31    42    39    1
    32    12    13   ar
    33    12    18   ar
    34    39    38    1
    35    39    40    1
    36    13    14   ar
    37    18    17   ar
    38    14    16   ar
    39    17    16   ar
    40    17    19    1
    41    21    20    1
    42    19    20    1
    43    20    22    1
    44    22    23    2
    45    22    24    1
    46    24    25    1
