@<TRIPOS>MOLECULE
/tmp/ewbell/vina_2p4y_2p4y_lig/vina/vina2.pdbqt
 42 46 0 0 0
SMALL
GASTEIGER

@<TRIPOS>ATOM
      1  C1        11.5480    5.2760    9.2700 C.ar  486  INH486      0.0380
      2  C2        12.9040    5.3310    9.5900 C.ar  486  INH486      0.0170
      3  C3        13.3050    5.2890   11.0880 C.ar  486  INH486      0.0050
      4  C4        12.3990    5.2130   12.0800 C.ar  486  INH486      0.0490
      5  C5        11.0060    5.1590   11.7420 C.ar  486  INH486      0.0670
      6  C6        10.5760    5.1870   10.3350 C.ar  486  INH486      0.0800
      7  C7        14.6700    5.3310   11.5210 C.ar  486  INH486      0.0280
      8  C8        14.4880    5.2770   12.9250 C.ar  486  INH486      0.0220
      9  N1        13.1010    5.2060   13.3040 N.ar  486  INH486     -0.3450
     10  C10       15.6140    5.2940   13.9550 C.3   486  INH486      0.0690
     11  C11       12.4720    5.1380   14.6560 C.3   486  INH486      0.1690
     12  C13       11.6670    3.8310   14.9320 C.ar  486  INH486     -0.0160
     13  C18       12.3000    2.5370   15.1690 C.ar  486  INH486      0.0420
     14  C17       11.5200    1.3570   15.4240 C.ar  486  INH486      0.0270
     15 Cl1        13.9920    2.3120   15.1670 Cl    486  INH486     -0.0840
     16  C16       10.0890    1.4300   15.4440 C.ar  486  INH486      0.0380
     17  C15        9.4080    2.6820   15.2110 C.ar  486  INH486      0.0700
     18  C14       10.2000    3.8560   14.9620 C.ar  486  INH486      0.0470
     19  O2         7.9870    2.8510   15.1900 O.3   486  INH486     -0.3360
     20  C19        7.1460    2.4540   14.0830 C.3   486  INH486      0.2220
     21  C20        7.7050    1.1190   13.5710 C.3   486  INH486      0.0510
     22  C21        7.2030    3.3790   12.8690 C.2   486  INH486      0.1700
     23  O4         6.3290    4.4010   12.9650 O.2   486  INH486     -0.6480
     24  O3         7.9370    3.2140   11.9640 O.3   486  INH486     -0.7740
     25  H          8.8160    2.9300   12.1180 H     486  INH486      0.1670
     26  C9        15.9230    5.4140   10.6650 C.ar  486  INH486      0.0810
     27  C23       16.5260    6.6360   10.2050 C.ar  486  INH486      0.0290
     28  C22       17.7030    6.3250    9.4560 C.ar  486  INH486      0.1140
     29  C27       16.1980    8.0900   10.3520 C.3   486  INH486      0.0190
     30  O5        17.7970    4.9700    9.4500 O.2   486  INH486     -0.2370
     31  C24       18.5270    7.3030    8.8860 C.2   486  INH486      0.0770
     32  N2        16.7570    4.4480   10.1550 N.ar  486  INH486     -0.2590
     33  H2        16.6110    3.4480   10.2910 H     486  INH486      0.1950
     34  C25       18.1940    8.7220    9.0470 C.2   486  INH486      0.0700
     35  C26       17.0210    9.0870    9.7810 C.2   486  INH486      0.0380
     36  O6        19.0610    9.6340    8.4580 O.2   486  INH486     -0.3560
     37  C28       18.7420   11.0100    8.4740 C.3   486  INH486      0.2100
     38  O1         9.2170    5.1210   10.1080 O.3   486  INH486     -0.2550
     39  C12        8.3580    6.2180   10.2850 C.3   486  INH486      0.5300
     40  F3         7.2350    6.0270    9.6040 F     486  INH486     -0.1440
     41  F2         8.1020    6.4000   11.5930 F     486  INH486     -0.1440
     42  F1         8.9910    7.2690    9.8060 F     486  INH486     -0.1440
@<TRIPOS>BOND
     1    36    37    1
     2    36    34    1
     3    31    34    1
     4    31    28    2
     5    34    35    2
     6     1     2   ar
     7     1     6   ar
     8    30    28   ar
     9    30    32   ar
    10    28    27   ar
    11     2     3   ar
    12    40    39    1
    13    35    29    1
    14    42    39    1
    15    38    39    1
    16    38     6    1
    17    32    33    1
    18    32    26   ar
    19    27    29    1
    20    27    26   ar
    21    39    41    1
    22     6     5   ar
    23    26     7    1
    24     3     7   ar
    25     3     4   ar
    26     7     8   ar
    27     5     4   ar
    28    24    25    1
    29    24    22    1
    30     4     9   ar
    31    22    23    2
    32    22    20    1
    33     8     9   ar
    34     8    10    1
    35     9    11    1
    36    21    20    1
    37    20    19    1
    38    11    12    1
    39    12    18   ar
    40    12    13   ar
    41    18    17   ar
    42    15    13    1
    43    13    14   ar
    44    19    17    1
    45    17    16   ar
    46    14    16   ar
