@<TRIPOS>MOLECULE
/tmp/ewbell/vina_2p4y_2p4y_lig/vina/vina4.pdbqt
 42 46 0 0 0
SMALL
GASTEIGER

@<TRIPOS>ATOM
      1  C1        10.7640    6.8040    9.4610 C.ar  486  INH486      0.0380
      2  C2        11.8290    7.6990    9.3600 C.ar  486  INH486      0.0170
      3  C3        13.2140    7.2520    9.8960 C.ar  486  INH486      0.0050
      4  C4        13.4200    6.0470   10.4600 C.ar  486  INH486      0.0490
      5  C5        12.3190    5.1330   10.5600 C.ar  486  INH486      0.0670
      6  C6        10.9870    5.5080   10.0580 C.ar  486  INH486      0.0800
      7  C7        14.3720    8.0930    9.8330 C.ar  486  INH486      0.0280
      8  C8        15.3290    7.2440   10.4420 C.ar  486  INH486      0.0220
      9  N1        14.7760    5.9770   10.8430 N.ar  486  INH486     -0.3450
     10  C10       16.7960    7.6010   10.6700 C.3   486  INH486      0.0690
     11  C11       15.4220    4.8090   11.5110 C.3   486  INH486      0.1690
     12  C13       15.1130    4.6810   13.0340 C.ar  486  INH486     -0.0160
     13  C18       16.1360    4.7850   14.0700 C.ar  486  INH486      0.0420
     14  C17       15.8060    4.6660   15.4640 C.ar  486  INH486      0.0270
     15 Cl1        17.7860    5.0560   13.7270 Cl    486  INH486     -0.0840
     16  C16       14.4510    4.4330   15.8660 C.ar  486  INH486      0.0380
     17  C15       13.3970    4.3150   14.8850 C.ar  486  INH486      0.0700
     18  C14       13.7400    4.4420   13.4940 C.ar  486  INH486      0.0470
     19  O2        12.0210    4.0620   15.1870 O.3   486  INH486     -0.3360
     20  C19       11.1200    3.3570   14.3020 C.3   486  INH486      0.2220
     21  C20        9.6990    3.6800   14.7830 C.3   486  INH486      0.0510
     22  C21       11.2090    1.8340   14.3750 C.2   486  INH486      0.1700
     23  O4        10.2170    1.2310   13.6900 O.2   486  INH486     -0.6480
     24  O3        12.0570    1.2630   14.9580 O.3   486  INH486     -0.7740
     25  H         12.8420    1.0070   14.5130 H     486  INH486      0.1670
     26  C9        14.4810    9.4970    9.2620 C.ar  486  INH486      0.0810
     27  C23       15.6500   10.0360    8.6210 C.ar  486  INH486      0.0290
     28  C22       15.3720   11.3690    8.1860 C.ar  486  INH486      0.1140
     29  C27       17.0200    9.5120    8.3220 C.3   486  INH486      0.0190
     30  O5        14.0930   11.6290    8.5650 O.2   486  INH486     -0.2370
     31  C24       16.3060   12.1630    7.5100 C.2   486  INH486      0.0770
     32  N2        13.5830   10.5340    9.1910 N.ar  486  INH486     -0.2590
     33  H2        12.6360   10.4880    9.5660 H     486  INH486      0.1950
     34  C25       17.6410   11.6300    7.2180 C.2   486  INH486      0.0700
     35  C26       17.9730   10.3030    7.6390 C.2   486  INH486      0.0380
     36  O6        18.5120   12.4730    6.5390 O.2   486  INH486     -0.3560
     37  C28       18.4960   13.8580    6.8120 C.3   486  INH486      0.2100
     38  O1         9.9930    4.5600   10.1900 O.3   486  INH486     -0.2550
     39  C12        8.9800    4.6450   11.1590 C.3   486  INH486      0.5300
     40  F3         8.6640    3.4300   11.5900 F     486  INH486     -0.1440
     41  F2         9.3770    5.4280   12.1780 F     486  INH486     -0.1440
     42  F1         7.9380    5.1860   10.5630 F     486  INH486     -0.1440
@<TRIPOS>BOND
     1    36    37    1
     2    36    34    1
     3    34    31    1
     4    34    35    2
     5    31    28    2
     6    35    29    1
     7    28    30   ar
     8    28    27   ar
     9    29    27    1
    10    30    32   ar
    11    27    26   ar
    12    32    26   ar
    13    32    33    1
    14    26     7    1
    15     2     1   ar
    16     2     3   ar
    17     1     6   ar
    18     7     3   ar
    19     7     8   ar
    20     3     4   ar
    21     6    38    1
    22     6     5   ar
    23    38    39    1
    24     8    10    1
    25     8     9   ar
    26     4     5   ar
    27     4     9   ar
    28    42    39    1
    29     9    11    1
    30    39    40    1
    31    39    41    1
    32    11    12    1
    33    12    18   ar
    34    12    13   ar
    35    18    17   ar
    36    23    22    2
    37    15    13    1
    38    13    14   ar
    39    20    22    1
    40    20    21    1
    41    20    19    1
    42    22    24    1
    43    25    24    1
    44    17    19    1
    45    17    16   ar
    46    14    16   ar
