@<TRIPOS>MOLECULE
/tmp/ewbell/vina_2p4y_2p4y_lig/vina/vina3.pdbqt
 42 46 0 0 0
SMALL
GASTEIGER

@<TRIPOS>ATOM
      1  C1        13.8490    4.2040   15.7400 C.ar  486  INH486      0.0380
      2  C2        12.6980    4.5270   15.0220 C.ar  486  INH486      0.0170
      3  C3        12.8220    4.7150   13.4870 C.ar  486  INH486      0.0050
      4  C4        13.9920    4.5900   12.8320 C.ar  486  INH486      0.0490
      5  C5        15.1700    4.2590   13.5790 C.ar  486  INH486      0.0670
      6  C6        15.1020    4.0620   15.0370 C.ar  486  INH486      0.0800
      7  C7        11.7000    5.0390   12.6580 C.ar  486  INH486      0.0280
      8  C8        12.3350    5.1040   11.3930 C.ar  486  INH486      0.0220
      9  N1        13.7470    4.8360   11.4650 N.ar  486  INH486     -0.3450
     10  C10       11.6330    5.4270   10.0760 C.3   486  INH486      0.0690
     11  C11       14.7800    4.8040   10.3870 C.3   486  INH486      0.1690
     12  C13       15.6030    6.1200   10.2380 C.ar  486  INH486     -0.0160
     13  C18       17.0060    6.1440    9.8380 C.ar  486  INH486      0.0420
     14  C17       17.7270    7.3810    9.7080 C.ar  486  INH486      0.0270
     15 Cl1        17.9030    4.7330    9.4930 Cl    486  INH486     -0.0840
     16  C16       17.0730    8.6280    9.9780 C.ar  486  INH486      0.0380
     17  C15       15.6870    8.6640   10.3830 C.ar  486  INH486      0.0700
     18  C14       14.9770    7.4190   10.5050 C.ar  486  INH486      0.0470
     19  O2        14.9550    9.8540   10.6950 O.3   486  INH486     -0.3360
     20  C19       14.8190   10.9740    9.7900 C.3   486  INH486      0.2220
     21  C20       14.4370   12.1840   10.6530 C.3   486  INH486      0.0510
     22  C21       13.6770   10.8510    8.7830 C.2   486  INH486      0.1700
     23  O4        14.1050   10.9630    7.5090 O.2   486  INH486     -0.6480
     24  O3        12.5570   10.6680    9.0930 O.3   486  INH486     -0.7740
     25  H         12.2640   10.9010    9.9530 H     486  INH486      0.1670
     26  C9        10.2540    5.2460   13.0770 C.ar  486  INH486      0.0810
     27  C23        9.1890    5.6390   12.1930 C.ar  486  INH486      0.0290
     28  C22        7.9670    5.7030   12.9310 C.ar  486  INH486      0.1140
     29  C27        9.1010    5.9650   10.7340 C.3   486  INH486      0.0190
     30  O5         8.2850    5.3790   14.2120 O.2   486  INH486     -0.2370
     31  C24        6.7400    6.0430   12.3510 C.2   486  INH486      0.0770
     32  N2         9.6170    5.1160   14.2870 N.ar  486  INH486     -0.2590
     33  H2        10.0930    4.8490   15.1490 H     486  INH486      0.1950
     34  C25        6.6710    6.3510   10.9180 C.2   486  INH486      0.0700
     35  C26        7.8680    6.3090   10.1350 C.2   486  INH486      0.0380
     36  O6         5.4180    6.6740   10.4110 O.2   486  INH486     -0.3560
     37  C28        5.1050    6.3550    9.0720 C.3   486  INH486      0.2100
     38  O1        16.2860    3.7370   15.6670 O.3   486  INH486     -0.2550
     39  C12       17.4600    4.4950   15.5250 C.3   486  INH486      0.5300
     40  F3        17.1530    5.7590   15.2630 F     486  INH486     -0.1440
     41  F2        18.2080    4.4030   16.6400 F     486  INH486     -0.1440
     42  F1        18.1160    3.9800   14.5070 F     486  INH486     -0.1440
@<TRIPOS>BOND
     1    23    22    2
     2    22    24    1
     3    22    20    1
     4    37    36    1
     5    24    25    1
     6    15    13    1
     7    14    13   ar
     8    14    16   ar
     9    20    21    1
    10    20    19    1
    11    13    12   ar
    12    16    17   ar
    13    10     8    1
    14    35    29    1
    15    35    34    2
    16    12    11    1
    17    12    18   ar
    18    17    18   ar
    19    17    19    1
    20    11     9    1
    21    36    34    1
    22    29    27    1
    23    34    31    1
    24     8     9   ar
    25     8     7   ar
    26     9     4   ar
    27    27    28   ar
    28    27    26   ar
    29    31    28    2
    30     7    26    1
    31     7     3   ar
    32     4     3   ar
    33     4     5   ar
    34    28    30   ar
    35    26    32   ar
    36     3     2   ar
    37     5     6   ar
    38    30    32   ar
    39    32    33    1
    40    42    39    1
    41     2     1   ar
    42     6    38    1
    43     6     1   ar
    44    40    39    1
    45    39    38    1
    46    39    41    1
