@<TRIPOS>MOLECULE
./ligand/2q88_lig.pdb
 20 20 0 0 0
SMALL
GASTEIGER

@<TRIPOS>ATOM
      1  N1        21.9620   39.0090   72.1470 N.3   260  INH260     -0.2839
      2  C1        22.2270   40.1680   73.0190 C.3   260  INH260      0.1127
      3  C2        23.5290   40.8460   72.6130 C.2   260  INH260      0.3727
      4  O1        24.0220   40.6220   71.5010 O.co2 260  INH260     -0.2446
      5  C3        22.2010   39.7480   74.4760 C.3   260  INH260     -0.0143
      6  C4        20.8430   39.1210   74.8070 C.3   260  INH260     -0.0005
      7  O2        24.0780   41.6350   73.3820 O.co2 260  INH260     -0.2446
      8  C5        20.8530   36.7870   71.6410 C.3   260  INH260     -0.0303
      9  N2        20.5780   37.9940   73.8750 N.3   260  INH260     -0.2963
     10  C6        21.1280   37.9710   72.5840 C.3   260  INH260      0.1000
     11  H1        22.9980   39.0120   74.6590 H     260  INH260      0.0298
     12  H2        22.3610   40.6300   75.1130 H     260  INH260      0.0298
     13  H3        20.8540   38.7470   75.8410 H     260  INH260      0.0425
     14  H4        20.0530   39.8790   74.7000 H     260  INH260      0.0425
     15  H5        21.4300   40.9160   72.8950 H     260  INH260      0.0578
     16  H6        20.7870   37.1500   70.6050 H     260  INH260      0.0261
     17  H7        21.6710   36.0560   71.7220 H     260  INH260      0.0261
     18  H8        19.9040   36.3080   71.9220 H     260  INH260      0.0261
     19  H9        19.9960   37.2370   74.1740 H     260  INH260      0.1237
     20  H10       22.3920   38.9620   71.2120 H     260  INH260      0.1245
@<TRIPOS>BOND
     1     1    20    1
     2     1    10    1
     3     1     2    1
     4     2    15    1
     5     2     5    1
     6     2     3    1
     7     3     7   ar
     8     3     4   ar
     9     5    12    1
    10     5    11    1
    11     5     6    1
    12     6    14    1
    13     6    13    1
    14     6     9    1
    15     8    10    1
    16     8    18    1
    17     8    17    1
    18     8    16    1
    19     9    19    1
    20     9    10    1
