@<TRIPOS>MOLECULE
/tmp/ewbell/vina_2q88_2q88_lig/vina/vina5.pdbqt
 13 13 0 0 0
SMALL
GASTEIGER

@<TRIPOS>ATOM
      1  N1        16.2420   29.5400   78.8740 N.3   260  INH260     -0.3890
      2  C1        17.3910   30.4510   78.7170 C.3   260  INH260      0.1780
      3  C3        16.9110   31.8540   78.3970 C.3   260  INH260      0.0550
      4  C4        16.0620   31.8290   77.1220 C.3   260  INH260      0.1180
      5  C5        13.8950   28.7680   78.3090 C.3   260  INH260      0.0550
      6  N2        14.9470   30.8600   77.2880 N.3   260  INH260     -0.4020
      7  C6        15.0670   29.7510   78.1400 C.3   260  INH260      0.1680
      8  H9        14.0950   31.0010   76.7830 H     260  INH260      0.1550
      9  H10       16.3040   28.7450   79.5260 H     260  INH260      0.1560
     10  C2        18.2840   30.3890   79.9490 C.2   260  INH260      0.1630
     11  O2        17.8290   29.9880   81.0200 O.2   260  INH260     -0.6480
     12  O1        19.4600   30.7650   79.8790 O.3   260  INH260     -0.7750
     13  H         19.6990   31.4470   79.2830 H     260  INH260      0.1670
@<TRIPOS>BOND
     1     8     6    1
     2     4     6    1
     3     4     3    1
     4     6     7    1
     5     7     5    1
     6     7     1    1
     7     3     2    1
     8     2     1    1
     9     2    10    1
    10     1     9    1
    11    13    12    1
    12    12    10    1
    13    10    11    2
