@<TRIPOS>MOLECULE
/tmp/ewbell/vina_2q88_2q88_lig/vina/vina4.pdbqt
 13 13 0 0 0
SMALL
GASTEIGER

@<TRIPOS>ATOM
      1  N1        22.4910   38.9540   72.3960 N.3   260  INH260     -0.3890
      2  C1        21.6520   37.9350   73.0540 C.3   260  INH260      0.1780
      3  C3        20.6470   38.5970   73.9780 C.3   260  INH260      0.0550
      4  C4        21.3850   39.4450   75.0190 C.3   260  INH260      0.1180
      5  C5        23.6940   41.1840   72.3510 C.3   260  INH260      0.0550
      6  N2        22.2660   40.4220   74.3270 N.3   260  INH260     -0.4020
      7  C6        22.7960   40.1520   73.0560 C.3   260  INH260      0.1680
      8  H9        22.4840   41.2890   74.7760 H     260  INH260      0.1550
      9  H10       22.8540   38.7840   71.4470 H     260  INH260      0.1560
     10  C2        21.0050   37.0320   72.0120 C.2   260  INH260      0.1630
     11  O2        20.1790   37.4940   71.2250 O.2   260  INH260     -0.6480
     12  O1        21.2920   35.8300   71.9730 O.3   260  INH260     -0.7750
     13  H         22.0500   35.5450   71.5000 H     260  INH260      0.1670
@<TRIPOS>BOND
     1    11    10    2
     2     9     1    1
     3    13    12    1
     4    12    10    1
     5    10     2    1
     6     5     7    1
     7     1     2    1
     8     1     7    1
     9     2     3    1
    10     7     6    1
    11     3     4    1
    12     6     8    1
    13     6     4    1
