@<TRIPOS>MOLECULE
/tmp/ewbell/vina_2q88_2q88_lig/vina/vina2.pdbqt
 13 13 0 0 0
SMALL
GASTEIGER

@<TRIPOS>ATOM
      1  N1        16.8560   31.0210   79.0160 N.3   260  INH260     -0.3890
      2  C1        16.8430   29.8410   79.9000 C.3   260  INH260      0.1780
      3  C3        16.3260   28.6280   79.1520 C.3   260  INH260      0.0550
      4  C4        14.9210   28.9160   78.6130 C.3   260  INH260      0.1180
      5  C5        15.9270   32.4080   77.1090 C.3   260  INH260      0.0550
      6  N2        14.9540   30.1420   77.7740 N.3   260  INH260     -0.4020
      7  C6        15.9010   31.1530   77.9990 C.3   260  INH260      0.1680
      8  H9        14.2890   30.2480   77.0340 H     260  INH260      0.1550
      9  H10       17.5700   31.7520   79.1460 H     260  INH260      0.1560
     10  C2        18.2210   29.6270   80.5120 C.2   260  INH260      0.1630
     11  O2        18.4320   29.9500   81.6810 O.2   260  INH260     -0.6480
     12  O1        19.1340   29.1500   79.8280 O.3   260  INH260     -0.7750
     13  H         18.9680   28.4100   79.2770 H     260  INH260      0.1670
@<TRIPOS>BOND
     1     8     6    1
     2     5     7    1
     3     6     7    1
     4     6     4    1
     5     7     1    1
     6     4     3    1
     7     1     9    1
     8     1     2    1
     9     3     2    1
    10    13    12    1
    11    12    10    1
    12     2    10    1
    13    10    11    2
