@<TRIPOS>MOLECULE
/tmp/ewbell/vina_2q88_2q88_lig/vina/vina3.pdbqt
 13 13 0 0 0
SMALL
GASTEIGER

@<TRIPOS>ATOM
      1  N1        15.2240   29.1250   78.1780 N.3   260  INH260     -0.3890
      2  C1        15.5960   30.5330   78.4050 C.3   260  INH260      0.1780
      3  C3        17.0350   30.6280   78.8760 C.3   260  INH260      0.0550
      4  C4        17.2120   29.8080   80.1580 C.3   260  INH260      0.1180
      5  C5        15.3700   26.6500   78.7060 C.3   260  INH260      0.0550
      6  N2        16.7740   28.4090   79.9150 N.3   260  INH260     -0.4020
      7  C6        15.7980   28.1070   78.9520 C.3   260  INH260      0.1680
      8  H9        17.1830   27.6670   80.4480 H     260  INH260      0.1550
      9  H10       14.5370   28.8870   77.4480 H     260  INH260      0.1560
     10  C2        15.3180   31.3590   77.1570 C.2   260  INH260      0.1630
     11  O2        15.9790   32.3720   76.9290 O.2   260  INH260     -0.6480
     12  O1        14.4120   31.0260   76.3840 O.3   260  INH260     -0.7750
     13  H         14.1720   31.5870   75.6730 H     260  INH260      0.1670
@<TRIPOS>BOND
     1    13    12    1
     2    12    10    1
     3    11    10    2
     4    10     2    1
     5     9     1    1
     6     1     2    1
     7     1     7    1
     8     2     3    1
     9     5     7    1
    10     3     4    1
    11     7     6    1
    12     6     4    1
    13     6     8    1
