@<TRIPOS>MOLECULE
/tmp/ewbell/vina_2q88_2q88_lig/vina/vina1.pdbqt
 13 13 0 0 0
SMALL
GASTEIGER

@<TRIPOS>ATOM
      1  N1        21.9310   38.9320   72.2000 N.3   260  INH260     -0.3890
      2  C1        22.2460   40.1040   73.0360 C.3   260  INH260      0.1780
      3  C3        22.3080   39.7070   74.4980 C.3   260  INH260      0.0550
      4  C4        20.9740   39.0850   74.9200 C.3   260  INH260      0.1180
      5  C5        20.7970   36.7010   71.7960 C.3   260  INH260      0.0550
      6  N2        20.6550   37.9430   74.0240 N.3   260  INH260     -0.4020
      7  C6        21.1260   37.9000   72.7020 C.3   260  INH260      0.1680
      8  H9        20.0930   37.1910   74.3690 H     260  INH260      0.1550
      9  H10       22.3040   38.8700   71.2410 H     260  INH260      0.1560
     10  C2        23.5200   40.7770   72.5420 C.2   260  INH260      0.1630
     11  O2        24.1190   41.5710   73.2680 O.2   260  INH260     -0.6480
     12  O1        23.9400   40.5430   71.4020 O.3   260  INH260     -0.7750
     13  H         23.7660   39.7150   70.9990 H     260  INH260      0.1670
@<TRIPOS>BOND
     1    13    12    1
     2     9     1    1
     3    12    10    1
     4     5     7    1
     5     1     7    1
     6     1     2    1
     7    10     2    1
     8    10    11    2
     9     7     6    1
    10     2     3    1
    11     6     8    1
    12     6     4    1
    13     3     4    1
