@<TRIPOS>MOLECULE
./ligand/2isw_lig.pdb
 14 13 0 0 0
SMALL
GASTEIGER

@<TRIPOS>ATOM
      1  C1       -24.8050   15.2140   57.1340 C.2   613  INH613      0.2618
      2  C2       -26.3380   14.9260   56.4970 C.3   613  INH613      0.1371
      3  N1       -24.3690   14.0710   57.5790 N.am  613  INH613     -0.1956
      4  O1       -23.0360   14.2630   58.1280 O.3   613  INH613     -0.2951
      5  O2       -24.3110   16.3160   57.1080 O.2   613  INH613     -0.2712
      6  O3       -27.2340   15.6100   57.5300 O.3   613  INH613     -0.2741
      7  O4       -29.4690   15.8600   58.5260 O.2   613  INH613     -0.2224
      8  O5       -29.1090   14.1040   56.9150 O.3   613  INH613     -0.1145
      9  O6       -29.1150   16.5000   56.0800 O.3   613  INH613     -0.1145
     10  P1       -28.8030   15.5220   57.2660 P.3   613  INH613      0.5323
     11  H1       -26.5500   13.8490   56.4330 H     613  INH613      0.0663
     12  H2       -26.4520   15.3820   55.5020 H     613  INH613      0.0663
     13  H3       -24.8680   13.2050   57.5480 H     613  INH613      0.1823
     14  H4       -22.7070   13.4340   58.4560 H     613  INH613      0.2414
@<TRIPOS>BOND
     1     1     5    2
     2     1     3   am
     3     1     2    1
     4     2    12    1
     5     2    11    1
     6     2     6    1
     7     3    13    1
     8     3     4    1
     9     4    14    1
    10     6    10    1
    11     7    10    2
    12     8    10    1
    13     9    10    1
