@<TRIPOS>MOLECULE
/tmp/ewbell/vina_2isw_2isw_lig/vina/vina5.pdbqt
 14 13 0 0 0
SMALL
GASTEIGER

@<TRIPOS>ATOM
      1  C2       -27.8480   15.0410   59.2650 C.3   613  INH613      0.2850
      2  C1       -28.5170   15.3290   57.7460 C.2   613  INH613      0.2650
      3  O2       -29.6010   15.8480   57.6250 O.2   613  INH613     -0.2690
      4  N1       -27.6600   14.8810   56.8740 N.am  613  INH613     -0.2360
      5  H3       -26.7780   14.4630   57.0870 H     613  INH613      0.1970
      6  O1       -28.2010   15.0900   55.5400 O.3   613  INH613     -0.2870
      7  H4       -28.2300   14.2600   55.0780 H     613  INH613      0.2440
      8  O3       -28.9890   15.4680   60.1890 O.3   613  INH613     -0.2880
      9  P1       -28.9600   14.8650   61.6640 P.3   613  INH613      0.3910
     10  O4       -30.2410   14.1880   61.8760 O.2   613  INH613     -0.6320
     11  O5       -28.8530   16.0180   62.6060 O.3   613  INH613     -0.3070
     12  H        -29.5740   15.9760   63.2520 H     613  INH613      0.2220
     13  O6       -27.7050   13.9260   61.7410 O.3   613  INH613     -0.3070
     14  H        -27.9040   13.0850   61.3020 H     613  INH613      0.2220
@<TRIPOS>BOND
     1     7     6    1
     2     6     4    1
     3     4     5    1
     4     4     2   am
     5     3     2    2
     6     2     1    1
     7     1     8    1
     8     8     9    1
     9    14    13    1
    10     9    13    1
    11     9    10    2
    12     9    11    1
    13    11    12    1
