@<TRIPOS>MOLECULE
/tmp/ewbell/vina_2isw_2isw_lig/vina/vina1.pdbqt
 14 13 0 0 0
SMALL
GASTEIGER

@<TRIPOS>ATOM
      1  C2       -26.8460   15.1650   58.6420 C.3   613  INH613      0.2850
      2  C1       -27.9500   14.9500   57.3880 C.2   613  INH613      0.2650
      3  O2       -29.1150   14.7170   57.6100 O.2   613  INH613     -0.2690
      4  N1       -27.2790   15.0740   56.2800 N.am  613  INH613     -0.2360
      5  H3       -26.3020   15.2710   56.2100 H     613  INH613      0.1970
      6  O1       -28.1870   14.8780   55.1610 O.3   613  INH613     -0.2870
      7  H4       -28.3030   13.9470   55.0070 H     613  INH613      0.2440
      8  O3       -25.8590   14.0280   58.3810 O.3   613  INH613     -0.2880
      9  P1       -24.3390   14.4540   58.1650 P.3   613  INH613      0.3910
     10  O4       -24.3450   15.6450   57.3130 O.2   613  INH613     -0.6320
     11  O5       -23.6690   13.3350   57.4400 O.3   613  INH613     -0.3070
     12  H        -24.2900   12.9410   56.8080 H     613  INH613      0.2220
     13  O6       -23.7280   14.6760   59.5930 O.3   613  INH613     -0.3070
     14  H        -22.9120   14.1590   59.6800 H     613  INH613      0.2220
@<TRIPOS>BOND
     1     7     6    1
     2     6     4    1
     3     5     4    1
     4     4     2   am
     5    12    11    1
     6    10     9    2
     7     2     3    2
     8     2     1    1
     9    11     9    1
    10     9     8    1
    11     9    13    1
    12     8     1    1
    13    13    14    1
