@<TRIPOS>MOLECULE
/tmp/ewbell/vina_2isw_2isw_lig/vina/vina3.pdbqt
 14 13 0 0 0
SMALL
GASTEIGER

@<TRIPOS>ATOM
      1  C2       -25.7270   14.7880   56.8520 C.3   613  INH613      0.2850
      2  C1       -24.5730   14.0760   57.8510 C.2   613  INH613      0.2650
      3  O2       -23.4020   14.0680   57.5510 O.2   613  INH613     -0.2690
      4  N1       -25.2160   13.5960   58.8760 N.am  613  INH613     -0.2360
      5  H3       -26.2020   13.6600   59.0260 H     613  INH613      0.1970
      6  O1       -24.2620   12.9510   59.7640 O.3   613  INH613     -0.2870
      7  H4       -24.6810   12.2160   60.1970 H     613  INH613      0.2440
      8  O3       -26.7490   15.2920   57.8720 O.3   613  INH613     -0.2880
      9  P1       -28.2390   15.4750   57.3410 P.3   613  INH613      0.3910
     10  O4       -28.6820   16.8080   57.7560 O.2   613  INH613     -0.6320
     11  O5       -29.0770   14.4460   58.0230 O.3   613  INH613     -0.3070
     12  H        -30.0060   14.5640   57.7710 H     613  INH613      0.2220
     13  O6       -28.1930   15.2570   55.7880 O.3   613  INH613     -0.3070
     14  H        -27.2700   15.1970   55.4970 H     613  INH613      0.2220
@<TRIPOS>BOND
     1    14    13    1
     2    13     9    1
     3     1     2    1
     4     1     8    1
     5     9    10    2
     6     9     8    1
     7     9    11    1
     8     3     2    2
     9    12    11    1
    10     2     4   am
    11     4     5    1
    12     4     6    1
    13     6     7    1
