@<TRIPOS>MOLECULE
/tmp/ewbell/vina_2isw_2isw_lig/vina/vina4.pdbqt
 14 13 0 0 0
SMALL
GASTEIGER

@<TRIPOS>ATOM
      1  C2       -27.0920   14.7950   58.1990 C.3   613  INH613      0.2850
      2  C1       -28.3720   15.1680   57.1690 C.2   613  INH613      0.2650
      3  O2       -28.2660   15.0600   55.9710 O.2   613  INH613     -0.2690
      4  N1       -29.3530   15.5640   57.9270 N.am  613  INH613     -0.2360
      5  H3       -29.3330   15.6170   58.9250 H     613  INH613      0.1970
      6  O1       -30.4820   15.9190   57.0820 O.3   613  INH613     -0.2870
      7  H4       -30.5750   16.8640   57.0600 H     613  INH613      0.2440
      8  O3       -25.9640   14.5240   57.2030 O.3   613  INH613     -0.2880
      9  P1       -24.4840   14.5690   57.7900 P.3   613  INH613      0.3910
     10  O4       -24.6030   14.7500   59.2390 O.2   613  INH613     -0.6320
     11  O5       -23.8150   15.7640   57.1990 O.3   613  INH613     -0.3070
     12  H        -24.0350   15.8270   56.2570 H     613  INH613      0.2220
     13  O6       -23.7870   13.2320   57.3550 O.3   613  INH613     -0.3070
     14  H        -24.0180   13.0310   56.4350 H     613  INH613      0.2220
@<TRIPOS>BOND
     1     3     2    2
     2    12    11    1
     3    14    13    1
     4     7     6    1
     5     6     4    1
     6     2     4   am
     7     2     1    1
     8    11     9    1
     9     8     9    1
    10     8     1    1
    11    13     9    1
    12     9    10    2
    13     4     5    1
