@<TRIPOS>MOLECULE
/tmp/ewbell/vina_2isw_2isw_lig/vina/vina2.pdbqt
 14 13 0 0 0
SMALL
GASTEIGER

@<TRIPOS>ATOM
      1  C2       -26.2040   14.8370   59.0080 C.3   613  INH613      0.2850
      2  C1       -24.8290   14.7950   58.0350 C.2   613  INH613      0.2650
      3  O2       -24.5440   15.7190   57.3110 O.2   613  INH613     -0.2690
      4  N1       -24.2610   13.6440   58.2470 N.am  613  INH613     -0.2360
      5  H3       -24.5880   12.9410   58.8780 H     613  INH613      0.1970
      6  O1       -23.0740   13.5490   57.4130 O.3   613  INH613     -0.2870
      7  H4       -22.9780   14.3480   56.9080 H     613  INH613      0.2440
      8  O3       -27.1430   15.7130   58.1770 O.3   613  INH613     -0.2880
      9  P1       -28.6380   15.1850   58.0190 P.3   613  INH613      0.3910
     10  O4       -28.7180   14.5090   56.7220 O.2   613  INH613     -0.6320
     11  O5       -29.5260   16.3840   58.0030 O.3   613  INH613     -0.3070
     12  H        -30.0740   16.3920   58.8030 H     613  INH613      0.2220
     13  O6       -28.9210   14.2610   59.2540 O.3   613  INH613     -0.3070
     14  H        -28.1720   13.6610   59.3880 H     613  INH613      0.2220
@<TRIPOS>BOND
     1    10     9    2
     2     7     6    1
     3     3     2    2
     4     6     4    1
     5    11     9    1
     6    11    12    1
     7     9     8    1
     8     9    13    1
     9     2     4   am
    10     2     1    1
    11     8     1    1
    12     4     5    1
    13    13    14    1
