@<TRIPOS>MOLECULE
./ligand/2v7v_lig.pdb
 31 33 0 0 0
SMALL
GASTEIGER

@<TRIPOS>ATOM
      1  O1        16.8680   28.4860   63.5090 O.3   1759  INH1759    -0.3847
      2  C1        17.0930   29.9170   63.6080 C.3   1759  INH1759     0.1286
      3  C2        17.2630   30.3080   65.0850 C.3   1759  INH1759     0.1138
      4  O2        17.3570   29.1490   65.9280 O.3   1759  INH1759    -0.3864
      5  C3        15.9410   30.9900   65.3670 C.3   1759  INH1759     0.1176
      6  C4        16.3650   32.0760   66.3120 C.3   1759  INH1759     0.1188
      7  F1        15.8050   31.7320   67.4820 F     1759  INH1759    -0.2463
      8  O3        15.6190   31.6820   64.1820 O.3   1759  INH1759    -0.3454
      9  C5        15.8340   30.7000   63.1620 C.3   1759  INH1759     0.1667
     10  N1        16.1100   31.3810   61.8840 N.ar  1759  INH1759    -0.2855
     11  C6        17.1020   32.2170   61.6160 C.ar  1759  INH1759     0.1004
     12  N2        17.0240   32.6060   60.3290 N.ar  1759  INH1759    -0.2306
     13  C7        15.9790   32.0210   59.7900 C.ar  1759  INH1759     0.1473
     14  C8        15.3810   31.2440   60.7790 C.ar  1759  INH1759     0.1674
     15  N3        14.2720   30.5290   60.5220 N.ar  1759  INH1759    -0.2159
     16  C9        13.7010   30.5370   59.3240 C.ar  1759  INH1759     0.1205
     17  N4        14.2770   31.3000   58.3170 N.ar  1759  INH1759    -0.2188
     18  C10       15.4240   32.0550   58.5230 C.ar  1759  INH1759     0.1472
     19  N5        15.9790   32.8000   57.5510 N.pl3 1759  INH1759    -0.3413
     20  H1        17.6310   28.0220   63.8350 H     1759  INH1759     0.2101
     21  H2        17.9720   30.2030   63.0120 H     1759  INH1759     0.0665
     22  H3        18.1260   30.9720   65.2400 H     1759  INH1759     0.0647
     23  H4        18.1530   28.6720   65.7220 H     1759  INH1759     0.2100
     24  H5        15.1460   30.3270   65.7390 H     1759  INH1759     0.0650
     25  H6        15.9930   33.0540   65.9740 H     1759  INH1759     0.0642
     26  H7        17.4610   32.1110   66.3990 H     1759  INH1759     0.0642
     27  H8        14.9650   30.0330   63.0620 H     1759  INH1759     0.0866
     28  H9        17.8620   32.5400   62.3260 H     1759  INH1759     0.1030
     29  H10       12.8030   29.9600   59.1360 H     1759  INH1759     0.1048
     30  H11       16.8310   33.3470   57.7440 H     1759  INH1759     0.1438
     31  H12       15.5530   32.8240   56.6140 H     1759  INH1759     0.1438
@<TRIPOS>BOND
     1    31    19    1
     2    19    30    1
     3    19    18    1
     4    17    18   ar
     5    17    16   ar
     6    18    13   ar
     7    29    16    1
     8    16    15   ar
     9    13    12   ar
    10    13    14   ar
    11    12    11   ar
    12    15    14   ar
    13    14    10   ar
    14    11    10   ar
    15    11    28    1
    16    10     9    1
    17    21     2    1
    18    27     9    1
    19     9     2    1
    20     9     8    1
    21     1     2    1
    22     1    20    1
    23     2     3    1
    24     8     5    1
    25     3    22    1
    26     3     5    1
    27     3     4    1
    28     5    24    1
    29     5     6    1
    30    23     4    1
    31    25     6    1
    32     6    26    1
    33     6     7    1
