@<TRIPOS>MOLECULE
/tmp/ewbell/vina_2v7v_2v7v_lig/vina/vina2.pdbqt
 26 28 0 0 0
SMALL
GASTEIGER

@<TRIPOS>ATOM
      1  N1        17.5660   34.0490   63.4500 N.3   1759  INH1759    -0.2970
      2  C6        17.3620   33.4690   62.2770 C.3   1759  INH1759     0.1880
      3  N2        16.8810   32.2250   62.4710 N.pl3 1759  INH1759    -0.3460
      4  H2        16.6400   31.5550   61.7410 H     1759  INH1759     0.1670
      5  C7        16.7770   32.0270   63.7650 C.2   1759  INH1759     0.1220
      6  C8        17.2030   33.1910   64.4000 C.3   1759  INH1759     0.1420
      7  N3        17.1980   33.2900   65.7400 N.3   1759  INH1759    -0.3360
      8  H3        17.5180   34.1550   66.1770 H     1759  INH1759     0.1680
      9  C9        16.7870   32.2910   66.5100 C.3   1759  INH1759     0.1830
     10  N4        16.3600   31.1160   65.9050 N.pl3 1759  INH1759    -0.3370
     11  H4        16.0470   30.3440   66.4940 H     1759  INH1759     0.1680
     12  C10       16.3460   30.9550   64.5260 C.2   1759  INH1759     0.1310
     13  C5        18.1050   35.3980   63.6990 C.3   1759  INH1759     0.2620
     14  C1        16.9340   36.3810   63.9430 C.3   1759  INH1759     0.1980
     15  C2        17.3560   37.1460   65.2080 C.3   1759  INH1759     0.1820
     16  C3        18.8080   36.7360   65.3340 C.3   1759  INH1759     0.1840
     17  O3        18.8520   35.3890   64.9210 O.3   1759  INH1759    -0.3530
     18  O1        16.8060   37.3110   62.8350 O.3   1759  INH1759    -0.3880
     19  H1        15.8980   37.3480   62.5550 H     1759  INH1759     0.2100
     20  O2        17.3090   38.5670   65.0030 O.3   1759  INH1759    -0.3900
     21  H4        17.8800   38.9960   65.6300 H     1759  INH1759     0.2100
     22  C4        18.9650   36.6590   66.8240 C.3   1759  INH1759     0.2560
     23  F1        19.2610   35.3720   67.0580 F     1759  INH1759    -0.2530
     24  N5        15.9270   29.8200   63.9380 N.pl3 1759  INH1759    -0.3830
     25  H12       15.7380   28.9840   64.5090 H     1759  INH1759     0.1570
     26  H11       15.7950   29.7880   62.9170 H     1759  INH1759     0.1570
@<TRIPOS>BOND
     1     4     3    1
     2     2     3    1
     3     2     1    1
     4     3     5    1
     5    19    18    1
     6    18    14    1
     7    26    24    1
     8     1    13    1
     9     1     6    1
    10    13    14    1
    11    13    17    1
    12     5     6    1
    13     5    12    2
    14    24    25    1
    15    24    12    1
    16    14    15    1
    17     6     7    1
    18    12    10    1
    19    17    16    1
    20    20    15    1
    21    20    21    1
    22    15    16    1
    23    16    22    1
    24     7     8    1
    25     7     9    1
    26    10    11    1
    27    10     9    1
    28    22    23    1
