@<TRIPOS>MOLECULE
/tmp/ewbell/vina_2v7v_2v7v_lig/vina/vina4.pdbqt
 26 28 0 0 0
SMALL
GASTEIGER

@<TRIPOS>ATOM
      1  N1        17.7090   33.9820   64.4890 N.pl3 1759  INH1759    -0.2970
      2  C6        17.5940   33.3800   65.6630 C.3   1759  INH1759     0.1880
      3  N2        17.1290   32.1290   65.4810 N.pl3 1759  INH1759    -0.3460
      4  H2        16.9420   31.4450   66.2150 H     1759  INH1759     0.1670
      5  C7        16.9590   31.9420   64.1920 C.2   1759  INH1759     0.1220
      6  C8        17.3370   33.1170   63.5480 C.2   1759  INH1759     0.1420
      7  N3        17.2810   33.2210   62.2090 N.pl3 1759  INH1759    -0.3360
      8  H3        17.5620   34.0960   61.7660 H     1759  INH1759     0.1680
      9  C9        16.8690   32.2150   61.4490 C.3   1759  INH1759     0.1830
     10  N4        16.4820   31.0310   62.0640 N.3   1759  INH1759    -0.3370
     11  H4        16.1620   30.2560   61.4830 H     1759  INH1759     0.1680
     12  C10       16.5160   30.8670   63.4420 C.3   1759  INH1759     0.1310
     13  C5        18.1580   35.3620   64.2310 C.3   1759  INH1759     0.2620
     14  C1        16.9980   36.3430   64.5320 C.3   1759  INH1759     0.1980
     15  C2        17.6550   37.4310   65.3960 C.3   1759  INH1759     0.1820
     16  C3        19.1230   37.1090   65.2170 C.3   1759  INH1759     0.1840
     17  O3        19.1920   35.7020   65.1610 O.3   1759  INH1759    -0.3530
     18  O1        16.4970   36.9360   63.3050 O.3   1759  INH1759    -0.3880
     19  H1        15.6700   36.5300   63.0710 H     1759  INH1759     0.2100
     20  O2        17.4160   38.7430   64.8610 O.3   1759  INH1759    -0.3900
     21  H4        18.1950   39.2760   64.9730 H     1759  INH1759     0.2100
     22  C4        19.6660   37.4410   66.5760 C.3   1759  INH1759     0.2560
     23  F1        19.2960   36.4030   67.3410 F     1759  INH1759    -0.2530
     24  N5        16.1480   29.7190   64.0390 N.3   1759  INH1759    -0.3830
     25  H12       15.9700   29.7010   65.0530 H     1759  INH1759     0.1570
     26  H11       16.0430   28.8590   63.4810 H     1759  INH1759     0.1570
@<TRIPOS>BOND
     1     9    10    1
     2     9     7    1
     3    11    10    1
     4     8     7    1
     5    10    12    1
     6     7     6    1
     7    19    18    1
     8    18    14    1
     9    12    24    1
    10    12     5    1
    11    26    24    1
    12     6     5    2
    13     6     1    1
    14    24    25    1
    15     5     3    1
    16    13     1    1
    17    13    14    1
    18    13    17    1
    19     1     2    1
    20    14    15    1
    21    20    21    1
    22    20    15    1
    23    17    16    1
    24    16    15    1
    25    16    22    1
    26     3     2    1
    27     3     4    1
    28    22    23    1
