@<TRIPOS>MOLECULE
/tmp/ewbell/vina_2v7v_2v7v_lig/vina/vina5.pdbqt
 26 28 0 0 0
SMALL
GASTEIGER

@<TRIPOS>ATOM
      1  N1        17.5420   33.9720   64.5250 N.pl3 1759  INH1759    -0.2970
      2  C6        17.6010   33.9780   63.2020 C.3   1759  INH1759     0.1880
      3  N2        16.9580   32.8970   62.7210 N.pl3 1759  INH1759    -0.3460
      4  H2        16.8530   32.6500   61.7370 H     1759  INH1759     0.1670
      5  C7        16.4890   32.2160   63.7410 C.2   1759  INH1759     0.1220
      6  C8        16.8470   32.9000   64.8990 C.2   1759  INH1759     0.1420
      7  N3        16.4920   32.4440   66.1120 N.pl3 1759  INH1759    -0.3360
      8  H3        16.7720   32.9660   66.9430 H     1759  INH1759     0.1680
      9  C9        15.7860   31.3290   66.2570 C.3   1759  INH1759     0.1830
     10  N4        15.4170   30.6230   65.1200 N.3   1759  INH1759    -0.3370
     11  H4        14.8770   29.7640   65.2270 H     1759  INH1759     0.1680
     12  C10       15.7580   31.0450   63.8420 C.3   1759  INH1759     0.1310
     13  C5        18.1330   34.9550   65.4520 C.3   1759  INH1759     0.2620
     14  C1        19.6080   35.2090   65.0570 C.3   1759  INH1759     0.1980
     15  C2        19.7280   36.7420   65.0540 C.3   1759  INH1759     0.1820
     16  C3        18.4360   37.1430   65.7340 C.3   1759  INH1759     0.1840
     17  O3        17.4740   36.2160   65.2830 O.3   1759  INH1759    -0.3530
     18  O1        20.5080   34.6560   66.0530 O.3   1759  INH1759    -0.3880
     19  H1        20.9250   33.8760   65.7040 H     1759  INH1759     0.2100
     20  O2        20.8210   37.1860   65.8730 O.3   1759  INH1759    -0.3900
     21  H4        20.4800   37.6050   66.6550 H     1759  INH1759     0.2100
     22  C4        18.0920   38.4030   64.9950 C.3   1759  INH1759     0.2560
     23  F1        17.7490   37.9830   63.7680 F     1759  INH1759    -0.2530
     24  N5        15.3960   30.3650   62.7390 N.3   1759  INH1759    -0.3830
     25  H12       15.4400   30.8210   61.8170 H     1759  INH1759     0.1570
     26  H11       15.0750   29.3900   62.8180 H     1759  INH1759     0.1570
@<TRIPOS>BOND
     1     4     3    1
     2    25    24    1
     3     3     2    1
     4     3     5    1
     5    24    26    1
     6    24    12    1
     7     2     1    1
     8     5    12    1
     9     5     6    2
    10    23    22    1
    11    12    10    1
    12     1     6    1
    13     1    13    1
    14     6     7    1
    15    22    16    1
    16    15    14    1
    17    15    16    1
    18    15    20    1
    19    14    13    1
    20    14    18    1
    21    10    11    1
    22    10     9    1
    23    17    13    1
    24    17    16    1
    25    19    18    1
    26    20    21    1
    27     7     9    1
    28     7     8    1
