@<TRIPOS>MOLECULE
/tmp/ewbell/vina_2v7v_2v7v_lig/vina/vina1.pdbqt
 26 28 0 0 0
SMALL
GASTEIGER

@<TRIPOS>ATOM
      1  N1        16.0550   31.2800   61.9890 N.pl3 1759  INH1759    -0.2970
      2  C6        17.0550   32.1250   61.7860 C.3   1759  INH1759     0.1880
      3  N2        17.0420   32.5330   60.5020 N.pl3 1759  INH1759    -0.3460
      4  H2        17.7020   33.1810   60.0720 H     1759  INH1759     0.1670
      5  C7        16.0300   31.9500   59.9010 C.2   1759  INH1759     0.1220
      6  C8        15.3860   31.1550   60.8450 C.2   1759  INH1759     0.1420
      7  N3        14.2960   30.4390   60.5200 N.pl3 1759  INH1759    -0.3360
      8  H3        13.8480   29.8640   61.2340 H     1759  INH1759     0.1680
      9  C9        13.7890   30.4610   59.2940 C.3   1759  INH1759     0.1830
     10  N4        14.4130   31.2420   58.3300 N.3   1759  INH1759    -0.3370
     11  H4        14.0270   31.2600   57.3860 H     1759  INH1759     0.1680
     12  C10       15.5420   32.0010   58.6070 C.3   1759  INH1759     0.1310
     13  C5        15.7170   30.5780   63.2410 C.3   1759  INH1759     0.2620
     14  C1        16.9330   29.7400   63.7030 C.3   1759  INH1759     0.1980
     15  C2        17.0720   30.0880   65.1940 C.3   1759  INH1759     0.1820
     16  C3        15.7670   30.8110   65.4540 C.3   1759  INH1759     0.1840
     17  O3        15.5060   31.5430   64.2780 O.3   1759  INH1759    -0.3530
     18  O1        16.6600   28.3210   63.5620 O.3   1759  INH1759    -0.3880
     19  H1        15.8530   28.1060   64.0150 H     1759  INH1759     0.2100
     20  O2        17.0990   28.9060   66.0100 O.3   1759  INH1759    -0.3900
     21  H4        17.8500   28.9420   66.5920 H     1759  INH1759     0.2100
     22  C4        16.2010   31.8570   66.4390 C.3   1759  INH1759     0.2560
     23  F1        17.3890   32.2740   65.9750 F     1759  INH1759    -0.2530
     24  N5        16.1440   32.7630   57.6760 N.3   1759  INH1759    -0.3830
     25  H12       16.5080   32.3310   56.8150 H     1759  INH1759     0.1570
     26  H11       16.2390   33.7770   57.8250 H     1759  INH1759     0.1570
@<TRIPOS>BOND
     1    25    24    1
     2    11    10    1
     3    24    26    1
     4    24    12    1
     5    10    12    1
     6    10     9    1
     7    12     5    1
     8     9     7    1
     9     5     3    1
    10     5     6    2
    11     4     3    1
    12     3     2    1
    13     7     6    1
    14     7     8    1
    15     6     1    1
    16     2     1    1
    17     1    13    1
    18    13    14    1
    19    13    17    1
    20    18    14    1
    21    18    19    1
    22    14    15    1
    23    17    16    1
    24    15    16    1
    25    15    20    1
    26    16    22    1
    27    23    22    1
    28    20    21    1
