@<TRIPOS>MOLECULE
/tmp/ewbell/vina_2v7v_2v7v_lig/vina/vina3.pdbqt
 26 28 0 0 0
SMALL
GASTEIGER

@<TRIPOS>ATOM
      1  N1        17.5360   33.8100   64.9200 N.pl3 1759  INH1759    -0.2970
      2  C6        17.3590   33.0580   65.9960 C.3   1759  INH1759     0.1880
      3  N2        16.9590   31.8280   65.6220 N.pl3 1759  INH1759    -0.3460
      4  H2        16.7450   31.0500   66.2470 H     1759  INH1759     0.1670
      5  C7        16.8920   31.8030   64.3110 C.2   1759  INH1759     0.1220
      6  C8        17.2690   33.0620   63.8510 C.2   1759  INH1759     0.1420
      7  N3        17.3080   33.3370   62.5360 N.pl3 1759  INH1759    -0.3360
      8  H3        17.5860   34.2700   62.2300 H     1759  INH1759     0.1680
      9  C9        16.9940   32.4240   61.6250 C.3   1759  INH1759     0.1830
     10  N4        16.6100   31.1610   62.0540 N.3   1759  INH1759    -0.3370
     11  H4        16.3650   30.4580   61.3570 H     1759  INH1759     0.1680
     12  C10       16.5480   30.8210   63.3990 C.3   1759  INH1759     0.1310
     13  C5        17.9470   35.2240   64.8740 C.3   1759  INH1759     0.2620
     14  C1        17.9520   35.8040   66.3100 C.3   1759  INH1759     0.1980
     15  C2        19.3050   36.5260   66.4080 C.3   1759  INH1759     0.1820
     16  C3        19.7440   36.5360   64.9590 C.3   1759  INH1759     0.1840
     17  O3        19.3060   35.3060   64.4290 O.3   1759  INH1759    -0.3530
     18  O1        16.8770   36.7650   66.4780 O.3   1759  INH1759    -0.3880
     19  H1        16.5100   36.6800   67.3510 H     1759  INH1759     0.2100
     20  O2        19.1440   37.8880   66.8360 O.3   1759  INH1759    -0.3900
     21  H4        19.3380   37.9530   67.7640 H     1759  INH1759     0.2100
     22  C4        21.2280   36.3570   65.1000 C.3   1759  INH1759     0.2560
     23  F1        21.3910   35.0300   65.2090 F     1759  INH1759    -0.2530
     24  N5        16.1830   29.5950   63.8150 N.3   1759  INH1759    -0.3830
     25  H12       15.2920   29.4660   64.3150 H     1759  INH1759     0.1570
     26  H11       16.7950   28.7870   63.6350 H     1759  INH1759     0.1570
@<TRIPOS>BOND
     1    11    10    1
     2     9    10    1
     3     9     7    1
     4    10    12    1
     5     8     7    1
     6     7     6    1
     7    12    24    1
     8    12     5    1
     9    26    24    1
    10    24    25    1
    11     6     5    2
    12     6     1    1
    13     5     3    1
    14    17    13    1
    15    17    16    1
    16    13     1    1
    17    13    14    1
    18     1     2    1
    19    16    22    1
    20    16    15    1
    21    22    23    1
    22     3     2    1
    23     3     4    1
    24    14    15    1
    25    14    18    1
    26    15    20    1
    27    18    19    1
    28    20    21    1
