@<TRIPOS>MOLECULE
./ligand/3f8c_lig.pdb
 63 68 0 0 0
SMALL
GASTEIGER

@<TRIPOS>ATOM
      1  C1         0.4840   -5.5480    6.5570 C.ar  215  INH215      0.1205
      2  O1         0.7220   -6.3420    7.6430 O.3   215  INH215     -0.4922
      3  C2        -0.4650   -5.9340    5.6170 C.ar  215  INH215     -0.0193
      4  C3        -0.7220   -5.1370    4.5030 C.ar  215  INH215     -0.0477
      5  C4        -0.0260   -3.9470    4.3270 C.ar  215  INH215      0.0175
      6  C5         0.9300   -3.5470    5.2760 C.ar  215  INH215     -0.0477
      7  C6         1.1830   -4.3500    6.3930 C.ar  215  INH215     -0.0193
      8  C7        -0.3020   -3.1560    3.2080 C.ar  215  INH215      0.1393
      9  N1        -1.2750   -3.3980    2.3060 N.ar  215  INH215     -0.3379
     10  C8        -1.2430   -2.4460    1.3790 C.ar  215  INH215      0.0671
     11  C9        -0.2010   -1.5710    1.7390 C.ar  215  INH215      0.0895
     12  N2         0.3470   -2.0340    2.8620 N.ar  215  INH215     -0.2277
     13  C10        0.0830   -0.4560    0.9600 C.ar  215  INH215     -0.0336
     14  C11       -0.6730   -0.2160   -0.1790 C.ar  215  INH215     -0.0490
     15  C12       -1.7200   -1.0750   -0.5440 C.ar  215  INH215      0.0193
     16  C13       -2.0160   -2.2180    0.2240 C.ar  215  INH215     -0.0256
     17  C14       -2.4340   -0.7910   -1.7120 C.ar  215  INH215      0.1393
     18  N3        -3.3220   -1.5990   -2.3110 N.ar  215  INH215     -0.3378
     19  C15       -3.7740   -0.9840   -3.4100 C.ar  215  INH215      0.0682
     20  C16       -3.1170    0.2450   -3.4950 C.ar  215  INH215      0.0896
     21  N4        -2.3010    0.3310   -2.4470 N.ar  215  INH215     -0.2277
     22  C17       -3.3780    1.1110   -4.5570 C.ar  215  INH215     -0.0325
     23  C18       -4.3080    0.7500   -5.5410 C.ar  215  INH215     -0.0385
     24  C19       -4.9830   -0.4710   -5.4610 C.ar  215  INH215      0.0321
     25  C20       -4.7050   -1.3500   -4.3940 C.ar  215  INH215     -0.0152
     26  N5        -5.8540   -0.8280   -6.4380 N.pl3 215  INH215     -0.3197
     27  C21       -6.9910    0.0960   -6.6140 C.3   215  INH215      0.0525
     28  C22       -7.8240   -0.3520   -7.8430 C.3   215  INH215     -0.0160
     29  N6        -8.2720   -1.7610   -7.6920 N.4   215  INH215      0.2353
     30  C23       -7.1160   -2.6500   -7.4690 C.3   215  INH215     -0.0160
     31  C24       -6.3590   -2.1870   -6.2140 C.3   215  INH215      0.0525
     32  C25       -8.9830   -2.2170   -8.8960 C.3   215  INH215     -0.0430
     33  C26        0.0120   -7.5840    7.5280 C.3   215  INH215      0.0868
     34  C27       -0.1730   -8.1910    8.9250 C.3   215  INH215     -0.0307
     35  H1        -1.0090   -6.8620    5.7520 H     215  INH215      0.0654
     36  H2        -1.4640   -5.4450    3.7750 H     215  INH215      0.0626
     37  H3         1.4710   -2.6170    5.1430 H     215  INH215      0.0626
     38  H4         1.9180   -4.0440    7.1280 H     215  INH215      0.0654
     39  H5        -1.9340   -4.1890    2.3310 H     215  INH215      0.1674
     40  H6         0.8850    0.2180    1.2380 H     215  INH215      0.0640
     41  H7        -0.4510    0.6480   -0.7950 H     215  INH215      0.0625
     42  H8        -2.8100   -2.8980   -0.0640 H     215  INH215      0.0646
     43  H9        -3.6070   -2.5320   -1.9810 H     215  INH215      0.1674
     44  H10       -2.8620    2.0620   -4.6210 H     215  INH215      0.0640
     45  H11       -4.5050    1.4220   -6.3690 H     215  INH215      0.0637
     46  H12       -5.2100   -2.3070   -4.3340 H     215  INH215      0.0657
     47  H13       -6.6140    1.1170   -6.7770 H     215  INH215      0.0516
     48  H14       -7.6230    0.0780   -5.7140 H     215  INH215      0.0516
     49  H15       -7.2060   -0.2650   -8.7490 H     215  INH215      0.0830
     50  H16       -8.7060    0.2990   -7.9370 H     215  INH215      0.0830
     51  H17       -8.8930   -1.8200   -6.9000 H     215  INH215      0.2032
     52  H18       -6.4450   -2.6080   -8.3400 H     215  INH215      0.0830
     53  H19       -7.4680   -3.6820   -7.3270 H     215  INH215      0.0830
     54  H20       -7.0400   -2.1900   -5.3500 H     215  INH215      0.0516
     55  H21       -5.5160   -2.8670   -6.0190 H     215  INH215      0.0516
     56  H22       -9.8500   -1.5650   -9.0790 H     215  INH215      0.0778
     57  H23       -9.3270   -3.2510   -8.7490 H     215  INH215      0.0778
     58  H24       -8.3040   -2.1750   -9.7600 H     215  INH215      0.0778
     59  H25        0.5860   -8.2790    6.8980 H     215  INH215      0.0694
     60  H26       -0.9730   -7.4040    7.0720 H     215  INH215      0.0694
     61  H27       -0.7170   -9.1440    8.8420 H     215  INH215      0.0262
     62  H28       -0.7470   -7.4950    9.5540 H     215  INH215      0.0262
     63  H29        0.8120   -8.3700    9.3800 H     215  INH215      0.0262
@<TRIPOS>BOND
     1     1     7   ar
     2     1     3   ar
     3     1     2    1
     4     2    33    1
     5     3    35    1
     6     3     4   ar
     7     4    36    1
     8     4     5   ar
     9     5     8    1
    10     5     6   ar
    11     6    37    1
    12     6     7   ar
    13     7    38    1
    14     8    12   ar
    15     8     9   ar
    16     9    39    1
    17     9    10   ar
    18    10    16   ar
    19    10    11   ar
    20    11    13   ar
    21    11    12   ar
    22    13    40    1
    23    13    14   ar
    24    14    41    1
    25    14    15   ar
    26    15    17    1
    27    15    16   ar
    28    16    42    1
    29    17    21   ar
    30    17    18   ar
    31    18    43    1
    32    18    19   ar
    33    19    25   ar
    34    19    20   ar
    35    20    22   ar
    36    20    21   ar
    37    22    44    1
    38    22    23   ar
    39    23    45    1
    40    23    24   ar
    41    24    26    1
    42    24    25   ar
    43    25    46    1
    44    26    31    1
    45    26    27    1
    46    27    48    1
    47    27    47    1
    48    27    28    1
    49    28    50    1
    50    28    49    1
    51    28    29    1
    52    29    51    1
    53    29    32    1
    54    29    30    1
    55    30    53    1
    56    30    52    1
    57    30    31    1
    58    31    55    1
    59    31    54    1
    60    32    58    1
    61    32    57    1
    62    32    56    1
    63    33    60    1
    64    33    59    1
    65    33    34    1
    66    34    63    1
    67    34    62    1
    68    34    61    1
