@<TRIPOS>MOLECULE
/tmp/ewbell/vina_3f8c_3f8c_lig/vina/vina2.pdbqt
 39 44 0 0 0
SMALL
GASTEIGER

@<TRIPOS>ATOM
      1  C1        -2.3630    2.2140   -5.0100 C.ar  215  INH215      0.0680
      2  C2        -2.4660    0.8610   -4.7030 C.ar  215  INH215      0.0370
      3  C3        -1.9160    0.3610   -3.5240 C.ar  215  INH215      0.0180
      4  C4        -1.2610    1.2160   -2.6470 C.ar  215  INH215      0.0080
      5  C5        -1.1480    2.5830   -2.9540 C.ar  215  INH215      0.0180
      6  C6        -1.6990    3.0800   -4.1400 C.ar  215  INH215      0.0370
      7  C7        -0.7090    0.6960   -1.4730 C.3   215  INH215      0.1160
      8  N1        -1.1800   -0.3730   -0.8000 N.pl3 215  INH215     -0.3400
      9  C8        -0.4130   -0.5780    0.2660 C.2   215  INH215      0.0610
     10  C9         0.5850    0.4140    0.2370 C.2   215  INH215      0.0600
     11  N2         0.3760    1.1700   -0.8400 N.pl3 215  INH215     -0.3400
     12  H2         0.9400    1.9680   -1.1320 H     215  INH215      0.1670
     13  C10        1.5580    0.4630    1.2290 C.2   215  INH215      0.0330
     14  C11        1.5310   -0.4770    2.2500 C.3   215  INH215      0.0170
     15  C12        0.5470   -1.4760    2.2850 C.2   215  INH215      0.0100
     16  C13       -0.4550   -1.5360    1.2980 C.2   215  INH215      0.0470
     17  H5        -1.9990   -0.9380   -1.0680 H     215  INH215      0.1670
     18  C14        0.5610   -2.3840    3.3490 C.ar  215  INH215      0.1160
     19  N4         1.3160   -2.2630    4.4590 N.ar  215  INH215     -0.3400
     20  C16        1.0530   -3.2940    5.2590 C.ar  215  INH215      0.0600
     21  H4         1.9770   -1.5110    4.6530 H     215  INH215      0.1670
     22  C15        0.0890   -4.0780    4.6220 C.ar  215  INH215      0.0620
     23  C17        1.5440   -3.6610    6.5120 C.ar  215  INH215      0.0340
     24  N3        -0.1990   -3.4840    3.4580 N.ar  215  INH215     -0.3400
     25  C20       -0.3870   -5.2440    5.2420 C.ar  215  INH215      0.0550
     26  H9        -0.8850   -3.8140    2.7650 H     215  INH215      0.1670
     27  C19        0.1180   -5.6270    6.5010 C.ar  215  INH215      0.0130
     28  C18        1.0730   -4.8250    7.1330 C.ar  215  INH215      0.0260
     29  N5        -0.3590   -6.7320    7.1270 N.pl3 215  INH215     -0.2800
     30  C24       -1.0270   -7.6230    6.1730 C.3   215  INH215      0.1230
     31  C23       -1.7830   -8.7120    6.9520 C.3   215  INH215      0.2490
     32  N6        -0.8160   -9.5110    7.7280 N.4   215  INH215     -0.0730
     33  C22       -0.0480   -8.6410    8.6580 C.3   215  INH215      0.2490
     34  H17       -0.1710   -9.9560    7.0950 H     215  INH215      0.2790
     35  C25       -1.5560  -10.5440    8.4680 C.3   215  INH215      0.2690
     36  C21        0.6530   -7.4930    7.8850 C.3   215  INH215      0.1230
     37  O1        -2.9070    2.6860   -6.1710 O.3   215  INH215     -0.3520
     38  C26       -1.8770    3.0670   -7.0950 C.3   215  INH215      0.1710
     39  C27       -2.2220    4.4330   -7.7020 C.3   215  INH215      0.0340
@<TRIPOS>BOND
     1    39    38    1
     2    38    37    1
     3    37     1    1
     4     1     2   ar
     5     1     6   ar
     6     2     3   ar
     7     6     5   ar
     8     3     4   ar
     9     5     4   ar
    10     4     7    1
    11     7    11    1
    12     7     8    1
    13    12    11    1
    14    17     8    1
    15    11    10    1
    16     8     9    1
    17    10     9    1
    18    10    13    2
    19     9    16    2
    20    13    14    1
    21    16    15    1
    22    14    15    1
    23    15    18    2
    24    26    24    1
    25    18    24   ar
    26    18    19   ar
    27    24    22   ar
    28    19    21    1
    29    19    20   ar
    30    22    25   ar
    31    22    20   ar
    32    25    27   ar
    33    20    23   ar
    34    30    31    1
    35    30    29    1
    36    27    29    1
    37    27    28   ar
    38    23    28   ar
    39    31    32    1
    40    34    32    1
    41    29    36    1
    42    32    35    1
    43    32    33    1
    44    36    33    1
