@<TRIPOS>MOLECULE
/tmp/ewbell/vina_3f8c_3f8c_lig/vina/vina1.pdbqt
 39 44 0 0 0
SMALL
GASTEIGER

@<TRIPOS>ATOM
      1  C1         2.0470   -2.8640    5.1700 C.ar  215  INH215      0.0680
      2  C2         0.7000   -2.9570    4.8350 C.ar  215  INH215      0.0370
      3  C3         0.2180   -2.3620    3.6710 C.ar  215  INH215      0.0180
      4  C4         1.0870   -1.6700    2.8360 C.ar  215  INH215      0.0080
      5  C5         2.4480   -1.5670    3.1700 C.ar  215  INH215      0.0180
      6  C6         2.9260   -2.1650    4.3410 C.ar  215  INH215      0.0370
      7  C7         0.5850   -1.0730    1.6760 C.3   215  INH215      0.1160
      8  N1        -0.4710   -1.5190    0.9660 N.pl3 215  INH215     -0.3400
      9  C8        -0.6600   -0.7100   -0.0720 C.2   215  INH215      0.0610
     10  C9         0.3280    0.2880    0.0140 C.2   215  INH215      0.0600
     11  N2         1.0660    0.0370    1.0950 N.pl3 215  INH215     -0.3400
     12  H2         1.8580    0.5910    1.4230 H     215  INH215      0.1670
     13  C10        0.3910    1.2990   -0.9370 C.2   215  INH215      0.0330
     14  C11       -0.5310    1.3120   -1.9740 C.2   215  INH215      0.0170
     15  C12       -1.5270    0.3280   -2.0660 C.2   215  INH215      0.0100
     16  C13       -1.6010   -0.7130   -1.1200 C.3   215  INH215      0.0470
     17  H5        -1.0390   -2.3490    1.1910 H     215  INH215      0.1670
     18  C14       -2.4160    0.3830   -3.1430 C.ar  215  INH215      0.1160
     19  N4        -2.2580    1.1520   -4.2380 N.ar  215  INH215     -0.3400
     20  C16       -3.2820    0.9280   -5.0590 C.ar  215  INH215      0.0600
     21  H4        -1.4860    1.7960   -4.4100 H     215  INH215      0.1670
     22  C15       -4.1010   -0.0250   -4.4500 C.ar  215  INH215      0.0620
     23  C17       -3.6160    1.4480   -6.3090 C.3   215  INH215      0.0340
     24  N3        -3.5340   -0.3460   -3.2820 N.ar  215  INH215     -0.3400
     25  C20       -5.2690   -0.4590   -5.0960 C.3   215  INH215      0.0550
     26  H9        -3.8930   -1.0340   -2.6060 H     215  INH215      0.1670
     27  C19       -5.6180    0.0750   -6.3530 C.2   215  INH215      0.0130
     28  C18       -4.7820    1.0180   -6.9570 C.2   215  INH215      0.0260
     29  N5        -6.7250   -0.3630   -7.0040 N.pl3 215  INH215     -0.2800
     30  C24       -7.6670   -0.9850   -6.0680 C.3   215  INH215      0.1230
     31  C23       -8.7650   -1.7040   -6.8700 C.3   215  INH215      0.2490
     32  N6        -9.5030   -0.7120   -7.6740 N.4   215  INH215     -0.0730
     33  C22       -8.5800    0.0120   -8.5870 C.3   215  INH215      0.2490
     34  H17       -9.9390   -0.0450   -7.0580 H     215  INH215      0.2790
     35  C25      -10.5470   -1.4170   -8.4350 C.3   215  INH215      0.2690
     36  C21       -7.4240    0.6720   -7.7900 C.3   215  INH215      0.1230
     37  O1         2.5010   -3.4530    6.3160 O.3   215  INH215     -0.3520
     38  C26        1.4880   -3.4310    7.3320 C.3   215  INH215      0.1710
     39  C27        1.0920   -4.8710    7.6840 C.3   215  INH215      0.0340
@<TRIPOS>BOND
     1    33    36    1
     2    33    32    1
     3    35    32    1
     4    36    29    1
     5    32    34    1
     6    32    31    1
     7    29    27    1
     8    29    30    1
     9    28    27    2
    10    28    23    1
    11    31    30    1
    12    27    25    1
    13    23    20    1
    14    25    22    1
    15    20    22   ar
    16    20    19   ar
    17    22    24   ar
    18    21    19    1
    19    19    18   ar
    20    24    18   ar
    21    24    26    1
    22    18    15    2
    23    15    14    1
    24    15    16    1
    25    14    13    2
    26    16     9    1
    27    13    10    1
    28     9    10    2
    29     9     8    1
    30    10    11    1
    31     8    17    1
    32     8     7    1
    33    11    12    1
    34    11     7    1
    35     7     4    1
    36     4     5   ar
    37     4     3   ar
    38     5     6   ar
    39     3     2   ar
    40     6     1   ar
    41     2     1   ar
    42     1    37    1
    43    37    38    1
    44    38    39    1
