@<TRIPOS>MOLECULE
/tmp/ewbell/vina_3f8c_3f8c_lig/vina/vina5.pdbqt
 39 44 0 0 0
SMALL
GASTEIGER

@<TRIPOS>ATOM
      1  C1        -1.6960    2.0320   -3.8240 C.ar  215  INH215      0.0680
      2  C2        -2.0500    0.7080   -3.5860 C.ar  215  INH215      0.0370
      3  C3        -1.5950    0.0490   -2.4440 C.ar  215  INH215      0.0180
      4  C4        -0.7830    0.7170   -1.5370 C.ar  215  INH215      0.0080
      5  C5        -0.4160    2.0530   -1.7740 C.ar  215  INH215      0.0180
      6  C6        -0.8740    2.7080   -2.9210 C.ar  215  INH215      0.0370
      7  C7        -0.3300    0.0390   -0.4010 C.3   215  INH215      0.1160
      8  N1        -0.9890   -0.9580    0.2230 N.pl3 215  INH215     -0.3400
      9  C8        -0.2660   -1.3610    1.2630 C.ar  215  INH215      0.0610
     10  C9         0.9010   -0.5750    1.2680 C.ar  215  INH215      0.0600
     11  N2         0.8300    0.2640    0.2360 N.pl3 215  INH215     -0.3400
     12  H2         1.5320    0.9570   -0.0240 H     215  INH215      0.1670
     13  C10        1.8730   -0.7650    2.2430 C.ar  215  INH215      0.0330
     14  C11        1.6780   -1.7370    3.2130 C.ar  215  INH215      0.0170
     15  C12        0.5230   -2.5330    3.2150 C.ar  215  INH215      0.0100
     16  C13       -0.4800   -2.3500    2.2440 C.ar  215  INH215      0.0470
     17  H5        -1.9020   -1.3440   -0.0590 H     215  INH215      0.1670
     18  C14        0.3750   -3.4840    4.2290 C.3   215  INH215      0.1160
     19  N4         1.0270   -3.4670    5.4080 N.pl3 215  INH215     -0.3400
     20  C16        0.6190   -4.5090    6.1280 C.ar  215  INH215      0.0600
     21  H4         1.7170   -2.7740    5.6980 H     215  INH215      0.1670
     22  C15       -0.3320   -5.1930    5.3680 C.ar  215  INH215      0.0620
     23  C17        0.9630   -4.9650    7.4010 C.ar  215  INH215      0.0340
     24  N3        -0.4660   -4.5300    4.2140 N.pl3 215  INH215     -0.3400
     25  C20       -0.9430   -6.3460    5.8830 C.ar  215  INH215      0.0550
     26  H9        -1.1050   -4.7790    3.4450 H     215  INH215      0.1670
     27  C19       -0.5870   -6.8190    7.1640 C.ar  215  INH215      0.0130
     28  C18        0.3560   -6.1170    7.9190 C.ar  215  INH215      0.0260
     29  N5        -1.1960   -7.9120    7.6880 N.pl3 215  INH215     -0.2800
     30  C24       -2.5180   -7.5650    8.2210 C.3   215  INH215      0.1230
     31  C23       -3.0520   -8.7520    9.0400 C.3   215  INH215      0.2490
     32  N6        -3.2060   -9.9210    8.1540 N.4   215  INH215     -0.0730
     33  C22       -1.9070  -10.2670    7.5180 C.3   215  INH215      0.2490
     34  H17       -3.8720   -9.7020    7.4310 H     215  INH215      0.2790
     35  C25       -3.7140  -11.0460    8.9540 C.3   215  INH215      0.2690
     36  C21       -1.3250   -9.0480    6.7550 C.3   215  INH215      0.1230
     37  O1        -2.1500    2.6600   -4.9480 O.3   215  INH215     -0.3520
     38  C26       -3.0330    1.8030   -5.6870 C.3   215  INH215      0.1710
     39  C27       -3.5450    2.5500   -6.9250 C.3   215  INH215      0.0340
@<TRIPOS>BOND
     1    39    38    1
     2    38    37    1
     3    37     1    1
     4     1     2   ar
     5     1     6   ar
     6     2     3   ar
     7     6     5   ar
     8     3     4   ar
     9     5     4   ar
    10     4     7    1
    11     7     8    1
    12     7    11    1
    13    17     8    1
    14    12    11    1
    15     8     9    1
    16    11    10    1
    17     9    10   ar
    18     9    16   ar
    19    10    13   ar
    20    13    14   ar
    21    16    15   ar
    22    14    15   ar
    23    15    18    1
    24    26    24    1
    25    24    18    1
    26    24    22    1
    27    18    19    1
    28    22    25   ar
    29    22    20   ar
    30    19    21    1
    31    19    20    1
    32    25    27   ar
    33    20    23   ar
    34    36    33    1
    35    36    29    1
    36    27    29    1
    37    27    28   ar
    38    23    28   ar
    39    34    32    1
    40    33    32    1
    41    29    30    1
    42    32    35    1
    43    32    31    1
    44    30    31    1
