@<TRIPOS>MOLECULE
/tmp/ewbell/vina_3f8c_3f8c_lig/vina/vina4.pdbqt
 39 44 0 0 0
SMALL
GASTEIGER

@<TRIPOS>ATOM
      1  C1        -0.9570   -8.5800    8.2640 C.ar  215  INH215      0.0680
      2  C2        -1.9340   -7.9770    7.4790 C.ar  215  INH215      0.0370
      3  C3        -1.6220   -6.8720    6.6890 C.ar  215  INH215      0.0180
      4  C4        -0.3280   -6.3670    6.6830 C.ar  215  INH215      0.0080
      5  C5         0.6620   -6.9680    7.4780 C.ar  215  INH215      0.0180
      6  C6         0.3440   -8.0750    8.2710 C.ar  215  INH215      0.0370
      7  C7        -0.0350   -5.2530    5.8900 C.3   215  INH215      0.1160
      8  N1        -0.6530   -4.9390    4.7340 N.pl3 215  INH215     -0.3400
      9  C8        -0.1160   -3.8210    4.2540 C.2   215  INH215      0.0610
     10  C9         0.8770   -3.4290    5.1710 C.2   215  INH215      0.0600
     11  N2         0.8940   -4.3230    6.1580 N.pl3 215  INH215     -0.3400
     12  H2         1.5070   -4.3050    6.9740 H     215  INH215      0.1670
     13  C10        1.6230   -2.2770    4.9500 C.2   215  INH215      0.0330
     14  C11        1.3790   -1.5210    3.8130 C.2   215  INH215      0.0170
     15  C12        0.3870   -1.8960    2.8950 C.2   215  INH215      0.0100
     16  C13       -0.3720   -3.0650    3.0930 C.3   215  INH215      0.0470
     17  H5        -1.4160   -5.4740    4.2950 H     215  INH215      0.1670
     18  C14        0.2000   -1.1030    1.7590 C.ar  215  INH215      0.1160
     19  N4         0.9100    0.0030    1.4620 N.ar  215  INH215     -0.3400
     20  C16        0.4740    0.4810    0.2990 C.ar  215  INH215      0.0600
     21  H4         1.6550    0.4060    2.0310 H     215  INH215      0.1670
     22  C15       -0.5400   -0.3690   -0.1460 C.ar  215  INH215      0.0620
     23  C17        0.8490    1.5880   -0.4630 C.3   215  INH215      0.0340
     24  N3        -0.6740   -1.3370    0.7680 N.ar  215  INH215     -0.3400
     25  C20       -1.1900   -0.1080   -1.3620 C.3   215  INH215      0.0550
     26  H9        -1.3340   -2.1260    0.7200 H     215  INH215      0.1670
     27  C19       -0.8240    1.0180   -2.1280 C.2   215  INH215      0.0130
     28  C18        0.2020    1.8530   -1.6770 C.2   215  INH215      0.0260
     29  N5        -1.4190    1.2610   -3.3220 N.pl3 215  INH215     -0.2800
     30  C24       -2.7430    0.6330   -3.3810 C.3   215  INH215      0.1230
     31  C23       -3.2610    0.6970   -4.8280 C.3   215  INH215      0.2490
     32  N6        -3.4040    2.1090   -5.2280 N.4   215  INH215     -0.0730
     33  C22       -2.1040    2.8200   -5.1070 C.3   215  INH215      0.2490
     34  H17       -4.0750    2.5570   -4.6250 H     215  INH215      0.2790
     35  C25       -3.8970    2.1510   -6.6130 C.3   215  INH215      0.2690
     36  C21       -1.5380    2.6910   -3.6680 C.3   215  INH215      0.1230
     37  O1        -1.2820   -9.6610    9.0330 O.3   215  INH215     -0.3520
     38  C26       -1.6160  -10.7880    8.2090 C.3   215  INH215      0.1710
     39  C27       -2.9700  -11.3560    8.6530 C.3   215  INH215      0.0340
@<TRIPOS>BOND
     1    35    32    1
     2    32    33    1
     3    32    31    1
     4    32    34    1
     5    33    36    1
     6    31    30    1
     7    36    29    1
     8    30    29    1
     9    29    27    1
    10    27    28    2
    11    27    25    1
    12    28    23    1
    13    25    22    1
    14    23    20    1
    15    22    20   ar
    16    22    24   ar
    17    20    19   ar
    18    26    24    1
    19    24    18   ar
    20    19    18   ar
    21    19    21    1
    22    18    15    2
    23    15    16    1
    24    15    14    1
    25    16     9    1
    26    14    13    2
    27     9     8    1
    28     9    10    2
    29    17     8    1
    30     8     7    1
    31    13    10    1
    32    10    11    1
    33     7    11    1
    34     7     4    1
    35    11    12    1
    36     4     3   ar
    37     4     5   ar
    38     3     2   ar
    39     5     6   ar
    40     2     1   ar
    41    38    39    1
    42    38    37    1
    43     1     6   ar
    44     1    37    1
