@<TRIPOS>MOLECULE
/tmp/ewbell/vina_3f8c_3f8c_lig/vina/vina3.pdbqt
 39 44 0 0 0
SMALL
GASTEIGER

@<TRIPOS>ATOM
      1  C1        -8.5160   -0.9210   -8.3820 C.ar  215  INH215      0.0680
      2  C2        -7.9360   -1.8850   -7.5650 C.ar  215  INH215      0.0370
      3  C3        -6.8430   -1.5640   -6.7600 C.ar  215  INH215      0.0180
      4  C4        -6.3280   -0.2750   -6.7730 C.ar  215  INH215      0.0080
      5  C5        -6.9050    0.7030   -7.6010 C.ar  215  INH215      0.0180
      6  C6        -8.0000    0.3760   -8.4080 C.ar  215  INH215      0.0370
      7  C7        -5.2270    0.0270   -5.9660 C.3   215  INH215      0.1160
      8  N1        -4.9400   -0.5680   -4.7900 N.pl3 215  INH215     -0.3400
      9  C8        -3.8270   -0.0290   -4.3010 C.2   215  INH215      0.0610
     10  C9        -3.4090    0.9400   -5.2320 C.2   215  INH215      0.0600
     11  N2        -4.2840    0.9430   -6.2360 N.pl3 215  INH215     -0.3400
     12  H2        -4.2440    1.5360   -7.0650 H     215  INH215      0.1670
     13  C10       -2.2550    1.6810   -5.0060 C.2   215  INH215      0.0330
     14  C11       -1.5220    1.4560   -3.8490 C.3   215  INH215      0.0170
     15  C12       -1.9240    0.4880   -2.9170 C.2   215  INH215      0.0100
     16  C13       -3.0950   -0.2660   -3.1210 C.2   215  INH215      0.0470
     17  H5        -5.4900   -1.3160   -4.3450 H     215  INH215      0.1670
     18  C14       -1.1540    0.3200   -1.7620 C.ar  215  INH215      0.1160
     19  N4        -0.1540    1.1350   -1.3730 N.ar  215  INH215     -0.3400
     20  C16        0.3330    0.6810   -0.2200 C.ar  215  INH215      0.0600
     21  H4         0.1750    1.9590   -1.8760 H     215  INH215      0.1670
     22  C15       -0.4030   -0.4550    0.1220 C.ar  215  INH215      0.0620
     23  C17        1.3580    1.1320    0.6110 C.ar  215  INH215      0.0340
     24  N3        -1.3140   -0.6410   -0.8390 N.ar  215  INH215     -0.3400
     25  C20       -0.1080   -1.1510    1.3050 C.ar  215  INH215      0.0550
     26  H9        -2.0180   -1.3930   -0.8670 H     215  INH215      0.1670
     27  C19        0.9380   -0.7070    2.1400 C.ar  215  INH215      0.0130
     28  C18        1.6570    0.4400    1.7920 C.ar  215  INH215      0.0260
     29  N5         1.2100   -1.3490    3.3030 N.pl3 215  INH215     -0.2800
     30  C24        0.6280   -2.6940    3.3030 C.3   215  INH215      0.1230
     31  C23        0.7200   -3.2770    4.7230 C.3   215  INH215      0.2490
     32  N6         2.1390   -3.3900    5.1080 N.4   215  INH215     -0.0730
     33  C22        2.8040   -2.0620    5.0450 C.3   215  INH215      0.2490
     34  H17        2.6060   -4.0170    4.4720 H     215  INH215      0.2790
     35  C25        2.2080   -3.9470    6.4680 C.3   215  INH215      0.2690
     36  C21        2.6460   -1.4340    3.6360 C.3   215  INH215      0.1230
     37  O1        -9.5850   -1.2530   -9.1650 O.3   215  INH215     -0.3520
     38  C26      -10.4540   -2.1640   -8.4750 C.3   215  INH215      0.1710
     39  C27      -11.5530   -1.3700   -7.7580 C.3   215  INH215      0.0340
@<TRIPOS>BOND
     1    37    38    1
     2    37     1    1
     3    38    39    1
     4     6     1   ar
     5     6     5   ar
     6     1     2   ar
     7     5     4   ar
     8     2     3   ar
     9    12    11    1
    10     4     3   ar
    11     4     7    1
    12    11     7    1
    13    11    10    1
    14     7     8    1
    15    10    13    2
    16    10     9    1
    17    13    14    1
    18     8    17    1
    19     8     9    1
    20     9    16    2
    21    14    15    1
    22    16    15    1
    23    15    18    2
    24    21    19    1
    25    18    19   ar
    26    18    24   ar
    27    19    20   ar
    28    26    24    1
    29    24    22   ar
    30    20    22   ar
    31    20    23   ar
    32    22    25   ar
    33    23    28   ar
    34    25    27   ar
    35    28    27   ar
    36    27    29    1
    37    29    30    1
    38    29    36    1
    39    30    31    1
    40    36    33    1
    41    34    32    1
    42    31    32    1
    43    33    32    1
    44    32    35    1
