@<TRIPOS>MOLECULE
./ligand/2flr_lig.pdb
 44 47 0 0 0
SMALL
GASTEIGER

@<TRIPOS>ATOM
      1  N1        46.6130   -8.9030   12.4410 N.ar  512  INH512     -0.2625
      2  C1        46.4130   -7.6110   12.1280 C.ar  512  INH512      0.0295
      3  C2        47.4030   -6.9860   11.3620 C.ar  512  INH512     -0.0196
      4  C3        48.4610   -7.7440   11.0120 C.ar  512  INH512      0.0498
      5  C4        48.6060   -9.0280   11.3540 C.ar  512  INH512      0.0183
      6  C5        47.6490   -9.6670   12.1060 C.ar  512  INH512      0.0367
      7  N2        49.5160   -7.4030   10.2960 N.ar  512  INH512     -0.3540
      8  C6        49.7640   -9.4560   10.8350 C.ar  512  INH512     -0.0271
      9  C7        50.3550   -8.4160   10.1490 C.ar  512  INH512      0.0512
     10  C8        51.5120   -8.3000    9.4140 C.ar  512  INH512      0.0456
     11  C9        52.2930   -9.4380    9.2180 C.ar  512  INH512     -0.0489
     12  C10       53.4650   -9.3890    8.5040 C.ar  512  INH512     -0.0603
     13  C11       53.8780   -8.1880    7.9710 C.ar  512  INH512     -0.0503
     14  C12       53.1330   -7.0100    8.1370 C.ar  512  INH512      0.0295
     15  C13       51.9530   -7.0970    8.8590 C.ar  512  INH512      0.1957
     16  O1        51.1820   -5.9680    9.0090 O.3   512  INH512     -0.2866
     17  C14       56.9380   -4.0350    7.1660 C.3   512  INH512      0.0383
     18  N3        57.5030   -4.3370    8.5110 N.am  512  INH512     -0.2955
     19  C15       58.3490   -5.3150    8.6900 C.2   512  INH512      0.2973
     20  O2        58.7140   -6.0480    7.7960 O.2   512  INH512     -0.2531
     21  N4        58.8190   -5.5230    9.8900 N.am  512  INH512     -0.3134
     22  C16       53.6040   -5.8310    7.5910 C.ar  512  INH512     -0.0139
     23  C17       52.7560   -4.9440    6.9210 C.ar  512  INH512     -0.0539
     24  C18       53.2370   -3.7760    6.3440 C.ar  512  INH512     -0.0609
     25  C19       54.5910   -3.4820    6.4350 C.ar  512  INH512     -0.0570
     26  C20       55.4540   -4.3460    7.0940 C.ar  512  INH512     -0.0297
     27  C21       54.9590   -5.5040    7.6670 C.ar  512  INH512     -0.0492
     28  H1        45.5270   -7.0790   12.4540 H     512  INH512      0.0830
     29  H2        47.3230   -5.9460   11.0660 H     512  INH512      0.0653
     30  H3        47.7320  -10.7070   12.4010 H     512  INH512      0.0836
     31  H4        49.6680   -6.4640    9.9000 H     512  INH512      0.1659
     32  H5        50.1720  -10.4600   10.9380 H     512  INH512      0.0645
     33  H6        51.9680  -10.3830    9.6390 H     512  INH512      0.0625
     34  H7        54.0580  -10.2850    8.3610 H     512  INH512      0.0618
     35  H8        54.8040   -8.1510    7.4080 H     512  INH512      0.0625
     36  H9        57.4650   -4.6410    6.4140 H     512  INH512      0.0512
     37  H10       57.0890   -2.9670    6.9480 H     512  INH512      0.0512
     38  H11       57.2280   -3.7790    9.2940 H     512  INH512      0.1506
     39  H12       59.4680   -6.2660   10.0510 H     512  INH512      0.1465
     40  H13       58.5300   -4.9390   10.6480 H     512  INH512      0.1465
     41  H14       51.6990   -5.1730    6.8500 H     512  INH512      0.0624
     42  H15       52.5630   -3.1010    5.8280 H     512  INH512      0.0618
     43  H16       54.9760   -2.5720    5.9890 H     512  INH512      0.0621
     44  H17       55.6380   -6.1710    8.1860 H     512  INH512      0.0627
@<TRIPOS>BOND
     1     1     6   ar
     2     1     2   ar
     3     2    28    1
     4     2     3   ar
     5     3    29    1
     6     3     4   ar
     7     4     7   ar
     8     4     5   ar
     9     5     8   ar
    10     5     6   ar
    11     6    30    1
    12     7     9   ar
    13     7    31    1
    14     8    32    1
    15     8     9   ar
    16     9    10    1
    17    10    15   ar
    18    10    11   ar
    19    11    33    1
    20    11    12   ar
    21    12    34    1
    22    12    13   ar
    23    13    35    1
    24    13    14   ar
    25    14    22    1
    26    14    15   ar
    27    15    16    1
    28    17    26    1
    29    17    37    1
    30    17    36    1
    31    17    18    1
    32    18    38    1
    33    18    19   am
    34    19    21   am
    35    19    20    2
    36    21    40    1
    37    21    39    1
    38    22    27   ar
    39    22    23   ar
    40    23    41    1
    41    23    24   ar
    42    24    42    1
    43    24    25   ar
    44    25    43    1
    45    25    26   ar
    46    26    27   ar
    47    27    44    1
