@<TRIPOS>MOLECULE
/tmp/ewbell/vina_2flr_2flr_lig/vina/vina2.pdbqt
 33 36 0 0 0
SMALL
GASTEIGER

@<TRIPOS>ATOM
      1  N1        45.5410   -7.8440   13.5870 N.pl3 512  INH512     -0.3740
      2  H1        44.7520   -7.2550   13.8510 H     512  INH512      0.1640
      3  C1        45.7550   -8.9290   14.3510 C.3   512  INH512      0.0900
      4  C2        46.8320   -9.7490   13.9970 C.2   512  INH512      0.0470
      5  C3        47.5520   -9.3660   12.9250 C.ar  512  INH512      0.0450
      6  C4        47.2920   -8.2720   12.2010 C.ar  512  INH512      0.0080
      7  C5        46.2390   -7.4500   12.5250 C.2   512  INH512      0.1010
      8  N2        48.6080   -9.9520   12.3910 N.ar  512  INH512     -0.3550
      9  C6        48.2060   -8.2080   11.2240 C.ar  512  INH512      0.0450
     10  C7        49.0600   -9.2840   11.3420 C.ar  512  INH512      0.0460
     11  C8        50.1720   -9.6940   10.6440 C.ar  512  INH512      0.0250
     12  C9        50.9480   -8.7290   10.0020 C.ar  512  INH512      0.0160
     13  C10       52.0640   -9.0720    9.2800 C.ar  512  INH512      0.0020
     14  C11       52.4240  -10.3980    9.1860 C.ar  512  INH512      0.0150
     15  C12       51.6800  -11.4120    9.8090 C.ar  512  INH512      0.0080
     16  C13       50.5620  -11.0300   10.5350 C.ar  512  INH512      0.0890
     17  C16       52.0810  -12.7270    9.6690 C.ar  512  INH512     -0.0230
     18  C17       52.7150  -13.1790    8.5080 C.ar  512  INH512      0.0120
     19  C18       53.0870  -14.5080    8.3540 C.ar  512  INH512      0.0010
     20  C19       52.8250  -15.4090    9.3780 C.ar  512  INH512      0.0090
     21  C20       52.1960  -14.9850   10.5410 C.ar  512  INH512     -0.0400
     22  C21       51.8350  -13.6570   10.6800 C.ar  512  INH512      0.0210
     23  H4        49.0310  -10.8210   12.7490 H     512  INH512      0.1660
     24  O1        49.8330  -11.9960   11.1870 O.3   512  INH512     -0.3590
     25  H         50.1810  -12.8610   11.2840 H     512  INH512      0.2170
     26  C14       51.8850  -15.9790   11.6460 C.3   512  INH512      0.1620
     27  N3        50.6620  -16.7760   11.3470 N.am  512  INH512     -0.3390
     28  H11       50.3460  -16.8510   10.4010 H     512  INH512      0.1640
     29  C15       49.9930  -17.3780   12.2920 C.2   512  INH512      0.3140
     30  N4        50.4030  -17.2500   13.5250 N.am  512  INH512     -0.3520
     31  O2        49.0030  -18.0430   12.0830 O.2   512  INH512     -0.2480
     32  H13       51.2130  -16.7010   13.7290 H     512  INH512      0.1600
     33  H12       49.9070  -17.7020   14.2660 H     512  INH512      0.1600
@<TRIPOS>BOND
     1    19    18   ar
     2    19    20   ar
     3    18    17   ar
     4    14    13   ar
     5    14    15   ar
     6    13    12   ar
     7    20    21   ar
     8    17    15    1
     9    17    22   ar
    10    15    16   ar
    11    12    11   ar
    12    28    27    1
    13    16    11   ar
    14    16    24    1
    15    21    22   ar
    16    21    26    1
    17    11    10    1
    18    24    25    1
    19     9    10   ar
    20     9     6   ar
    21    10     8   ar
    22    27    26    1
    23    27    29   am
    24    31    29    2
    25     6     7    2
    26     6     5   ar
    27    29    30   am
    28     8    23    1
    29     8     5   ar
    30     7     1    1
    31     5     4    2
    32    30    32    1
    33    30    33    1
    34     1     2    1
    35     1     3    1
    36     4     3    1
