@<TRIPOS>MOLECULE
/tmp/ewbell/vina_2flr_2flr_lig/vina/vina4.pdbqt
 33 36 0 0 0
SMALL
GASTEIGER

@<TRIPOS>ATOM
      1  N1        46.7940   -7.4470   12.2700 N.pl3 512  INH512     -0.3740
      2  H1        46.1880   -6.6500   12.4600 H     512  INH512      0.1640
      3  C1        46.5100   -8.5810   12.9330 C.2   512  INH512      0.0900
      4  C2        47.3320   -9.6840   12.6800 C.2   512  INH512      0.0470
      5  C3        48.3320   -9.4990   11.7960 C.ar  512  INH512      0.0450
      6  C4        48.5670   -8.3440   11.1650 C.ar  512  INH512      0.0080
      7  C5        47.7750   -7.2440   11.3940 C.3   512  INH512      0.1010
      8  N2        49.2410  -10.3650   11.3890 N.ar  512  INH512     -0.3550
      9  C6        49.6310   -8.5270   10.3720 C.ar  512  INH512      0.0450
     10  C7        50.0730   -9.8250   10.5130 C.ar  512  INH512      0.0460
     11  C8        51.1210  -10.5340    9.9740 C.ar  512  INH512      0.0250
     12  C9        52.2660   -9.8390    9.5860 C.ar  512  INH512      0.0160
     13  C10       53.3430  -10.4850    9.0310 C.ar  512  INH512      0.0020
     14  C11       53.2900  -11.8500    8.8530 C.ar  512  INH512      0.0150
     15  C12       52.1640  -12.6010    9.2230 C.ar  512  INH512      0.0080
     16  C13       51.0970  -11.9180    9.7850 C.ar  512  INH512      0.0890
     17  C16       52.1630  -13.9660    9.0080 C.ar  512  INH512     -0.0230
     18  C17       52.8440  -14.5380    7.9290 C.ar  512  INH512      0.0120
     19  C18       52.8140  -15.9060    7.6940 C.ar  512  INH512      0.0010
     20  C19       52.0920  -16.7260    8.5510 C.ar  512  INH512      0.0090
     21  C20       51.4060  -16.1840    9.6300 C.ar  512  INH512     -0.0400
     22  C21       51.4490  -14.8190    9.8520 C.ar  512  INH512      0.0210
     23  H4        49.2980  -11.3410   11.7150 H     512  INH512      0.1660
     24  O1        49.9930  -12.6300   10.1920 O.3   512  INH512     -0.3590
     25  H         49.6970  -13.3630    9.6880 H     512  INH512      0.2170
     26  C14       50.5940  -17.0790   10.5470 C.3   512  INH512      0.1620
     27  N3        50.8880  -16.8150   11.9840 N.am  512  INH512     -0.3390
     28  H11       51.7810  -16.4430   12.2400 H     512  INH512      0.1640
     29  C15       50.0070  -17.0570   12.9150 C.2   512  INH512      0.3140
     30  N4        48.8550  -17.5650   12.5680 N.am  512  INH512     -0.3520
     31  O2        50.2080  -16.8420   14.0900 O.2   512  INH512     -0.2480
     32  H13       48.6640  -17.7600   11.6070 H     512  INH512      0.1600
     33  H12       48.1650  -17.7590   13.2640 H     512  INH512      0.1600
@<TRIPOS>BOND
     1    19    18   ar
     2    19    20   ar
     3    18    17   ar
     4    20    21   ar
     5    14    13   ar
     6    14    15   ar
     7    17    15    1
     8    17    22   ar
     9    13    12   ar
    10    15    16   ar
    11    12    11   ar
    12    21    22   ar
    13    21    26    1
    14    25    24    1
    15    16    11   ar
    16    16    24    1
    17    11    10    1
    18     9    10   ar
    19     9     6   ar
    20    10     8   ar
    21    26    27    1
    22     6     7    1
    23     6     5   ar
    24     8    23    1
    25     8     5   ar
    26     7     1    1
    27    32    30    1
    28     5     4    1
    29    27    28    1
    30    27    29   am
    31     1     2    1
    32     1     3    1
    33    30    29   am
    34    30    33    1
    35     4     3    2
    36    29    31    2
