@<TRIPOS>MOLECULE
/tmp/ewbell/vina_2flr_2flr_lig/vina/vina3.pdbqt
 33 36 0 0 0
SMALL
GASTEIGER

@<TRIPOS>ATOM
      1  N1        55.4910   -3.9010    5.1630 N.pl3 512  INH512     -0.3740
      2  H1        55.9570   -3.2940    4.4900 H     512  INH512      0.1640
      3  C1        54.6430   -3.3010    6.0160 C.3   512  INH512      0.0900
      4  C2        53.9940   -4.1220    6.9450 C.2   512  INH512      0.0470
      5  C3        54.2860   -5.4360    6.8930 C.ar  512  INH512      0.0450
      6  C4        55.1410   -5.9780    6.0190 C.ar  512  INH512      0.0080
      7  C5        55.7920   -5.1950    5.0960 C.2   512  INH512      0.1010
      8  N2        53.8210   -6.4130    7.6490 N.ar  512  INH512     -0.3550
      9  C6        55.1840   -7.2950    6.2600 C.ar  512  INH512      0.0450
     10  C7        54.3390   -7.5830    7.3110 C.ar  512  INH512      0.0460
     11  C8        54.0210   -8.7400    7.9840 C.ar  512  INH512      0.0250
     12  C9        54.9690   -9.7610    8.0370 C.ar  512  INH512      0.0160
     13  C10       54.7110  -10.9450    8.6820 C.ar  512  INH512      0.0020
     14  C11       53.4880  -11.1290    9.2890 C.ar  512  INH512      0.0150
     15  C12       52.4950  -10.1360    9.2660 C.ar  512  INH512      0.0080
     16  C13       52.7910   -8.9520    8.6100 C.ar  512  INH512      0.0890
     17  C16       51.2820  -10.3820    9.8800 C.ar  512  INH512     -0.0230
     18  C17       50.7370  -11.6680    9.9380 C.ar  512  INH512      0.0120
     19  C18       49.5020  -11.9080   10.5260 C.ar  512  INH512      0.0010
     20  C19       48.7920  -10.8460   11.0700 C.ar  512  INH512      0.0090
     21  C20       49.3100   -9.5590   11.0250 C.ar  512  INH512     -0.0400
     22  C21       50.5430   -9.3370   10.4380 C.ar  512  INH512      0.0210
     23  H4        53.1400   -6.2810    8.4110 H     512  INH512      0.1660
     24  O1        51.8530   -7.9460    8.6010 O.3   512  INH512     -0.3590
     25  H         51.9430   -7.2170    9.1830 H     512  INH512      0.2170
     26  C14       48.5170   -8.3960   11.5930 C.3   512  INH512      0.1620
     27  N3        47.8310   -8.7620   12.8640 N.am  512  INH512     -0.3390
     28  H11       48.3090   -9.3320   13.5320 H     512  INH512      0.1640
     29  C15       46.6180   -8.3550   13.1250 C.2   512  INH512      0.3140
     30  N4        45.9970   -7.6310   12.2330 N.am  512  INH512     -0.3520
     31  O2        46.0350   -8.6230   14.1530 O.2   512  INH512     -0.2480
     32  H13       46.4500   -7.4010   11.3720 H     512  INH512      0.1600
     33  H12       45.0680   -7.3080   12.4100 H     512  INH512      0.1600
@<TRIPOS>BOND
     1     2     1    1
     2     7     1    1
     3     7     6    2
     4     1     3    1
     5     3     4    1
     6     6     9   ar
     7     6     5   ar
     8     9    10   ar
     9     5     4    2
    10     5     8   ar
    11    10     8   ar
    12    10    11    1
    13     8    23    1
    14    11    12   ar
    15    11    16   ar
    16    12    13   ar
    17    24    16    1
    18    24    25    1
    19    16    15   ar
    20    13    14   ar
    21    15    14   ar
    22    15    17    1
    23    17    18   ar
    24    17    22   ar
    25    18    19   ar
    26    22    21   ar
    27    19    20   ar
    28    21    20   ar
    29    21    26    1
    30    32    30    1
    31    26    27    1
    32    30    33    1
    33    30    29   am
    34    27    29   am
    35    27    28    1
    36    29    31    2
