@<TRIPOS>MOLECULE
/tmp/ewbell/vina_2flr_2flr_lig/vina/vina5.pdbqt
 33 36 0 0 0
SMALL
GASTEIGER

@<TRIPOS>ATOM
      1  N1        53.5790  -17.9470   14.0280 N.pl3 512  INH512     -0.3740
      2  H1        54.0720  -18.7290   14.4570 H     512  INH512      0.1640
      3  C1        52.2690  -17.8430   14.3110 C.2   512  INH512      0.0900
      4  C2        51.5800  -16.7720   13.7300 C.2   512  INH512      0.0470
      5  C3        52.3000  -15.9520   12.9400 C.ar  512  INH512      0.0450
      6  C4        53.6050  -16.1060   12.6940 C.ar  512  INH512      0.0080
      7  C5        54.3060  -17.1490   13.2510 C.3   512  INH512      0.1010
      8  N2        51.8950  -14.8840   12.2770 N.ar  512  INH512     -0.3550
      9  C6        53.9800  -15.1170   11.8730 C.ar  512  INH512      0.0450
     10  C7        52.8840  -14.3270   11.5970 C.ar  512  INH512      0.0460
     11  C8        52.6880  -13.2180   10.8080 C.ar  512  INH512      0.0250
     12  C9        53.5080  -13.0400    9.6940 C.ar  512  INH512      0.0160
     13  C10       53.3730  -11.9490    8.8710 C.ar  512  INH512      0.0020
     14  C11       52.4060  -11.0090    9.1540 C.ar  512  INH512      0.0150
     15  C12       51.5530  -11.1350   10.2620 C.ar  512  INH512      0.0080
     16  C13       51.7140  -12.2510   11.0680 C.ar  512  INH512      0.0890
     17  C16       50.6110  -10.1540   10.5030 C.ar  512  INH512     -0.0230
     18  C17       50.8440   -8.8160   10.1710 C.ar  512  INH512      0.0120
     19  C18       49.9100   -7.8260   10.4450 C.ar  512  INH512      0.0010
     20  C19       48.7160   -8.1720   11.0620 C.ar  512  INH512      0.0090
     21  C20       48.4590   -9.4930   11.4030 C.ar  512  INH512     -0.0400
     22  C21       49.3990  -10.4680   11.1210 C.ar  512  INH512      0.0210
     23  H4        50.9270  -14.5300   12.2860 H     512  INH512      0.1660
     24  O1        50.8700  -12.4230   12.1400 O.3   512  INH512     -0.3590
     25  H         49.9750  -12.6610   11.9980 H     512  INH512      0.2170
     26  C14       47.1650   -9.8630   12.1050 C.3   512  INH512      0.1620
     27  N3        47.2580   -9.6690   13.5790 N.am  512  INH512     -0.3390
     28  H11       47.9020  -10.2240   14.1060 H     512  INH512      0.1640
     29  C15       46.5180   -8.7900   14.1980 C.2   512  INH512      0.3140
     30  N4        45.6650   -8.0900   13.5010 N.am  512  INH512     -0.3520
     31  O2        46.5770   -8.5970   15.3930 O.2   512  INH512     -0.2480
     32  H13       45.5890   -8.2320   12.5150 H     512  INH512      0.1600
     33  H12       45.0870   -7.4110   13.9530 H     512  INH512      0.1600
@<TRIPOS>BOND
     1    13    14   ar
     2    13    12   ar
     3    14    15   ar
     4    12    11   ar
     5    18    19   ar
     6    18    17   ar
     7    15    17    1
     8    15    16   ar
     9    19    20   ar
    10    17    22   ar
    11    11    16   ar
    12    11    10    1
    13    20    21   ar
    14    16    24    1
    15    22    21   ar
    16    21    26    1
    17    10     9   ar
    18    10     8   ar
    19     9     6   ar
    20    25    24    1
    21    26    27    1
    22     8    23    1
    23     8     5   ar
    24    32    30    1
    25     6     5   ar
    26     6     7    1
    27     5     4    1
    28     7     1    1
    29    30    33    1
    30    30    29   am
    31    27    28    1
    32    27    29   am
    33     4     3    2
    34     1     3    1
    35     1     2    1
    36    29    31    2
