@<TRIPOS>MOLECULE
/tmp/ewbell/vina_2flr_2flr_lig/vina/vina1.pdbqt
 33 36 0 0 0
SMALL
GASTEIGER

@<TRIPOS>ATOM
      1  N1        45.8930   -8.4590   13.6600 N.pl3 512  INH512     -0.3740
      2  H1        45.1730   -8.4450   14.3820 H     512  INH512      0.1640
      3  C1        45.8520   -7.4600   12.7610 C.2   512  INH512      0.0900
      4  C2        46.8350   -7.4650   11.7660 C.2   512  INH512      0.0470
      5  C3        47.7260   -8.4740   11.8060 C.ar  512  INH512      0.0450
      6  C4        47.7170   -9.4440   12.7270 C.ar  512  INH512      0.0080
      7  C5        46.7630   -9.4630   13.7160 C.3   512  INH512      0.1010
      8  N2        48.7380   -8.7110   10.9910 N.ar  512  INH512     -0.3550
      9  C6        48.7380  -10.2680   12.4550 C.ar  512  INH512      0.0450
     10  C7        49.3980   -9.8050   11.3370 C.ar  512  INH512      0.0460
     11  C8        50.4740  -10.2630   10.6130 C.ar  512  INH512      0.0250
     12  C9        50.7370  -11.6320   10.6040 C.ar  512  INH512      0.0160
     13  C10       51.8010  -12.1540    9.9110 C.ar  512  INH512      0.0020
     14  C11       52.6280  -11.3050    9.2100 C.ar  512  INH512      0.0150
     15  C12       52.4140   -9.9180    9.1840 C.ar  512  INH512      0.0080
     16  C13       51.3270   -9.4260    9.8900 C.ar  512  INH512      0.0890
     17  C16       53.2850   -9.1140    8.4740 C.ar  512  INH512     -0.0230
     18  C17       54.6380   -9.4380    8.3420 C.ar  512  INH512      0.0120
     19  C18       55.5200   -8.6120    7.6570 C.ar  512  INH512      0.0010
     20  C19       55.0460   -7.4360    7.0890 C.ar  512  INH512      0.0090
     21  C20       53.7060   -7.0910    7.2060 C.ar  512  INH512     -0.0400
     22  C21       52.8400   -7.9260    7.8890 C.ar  512  INH512      0.0210
     23  H4        48.9820   -8.1190   10.1840 H     512  INH512      0.1660
     24  O1        51.0690   -8.0760    9.8550 O.3   512  INH512     -0.3590
     25  H         50.2430   -7.7650    9.5380 H     512  INH512      0.2170
     26  C14       53.1980   -5.7910    6.6100 C.3   512  INH512      0.1620
     27  N3        51.8920   -5.3830    7.2000 N.am  512  INH512     -0.3390
     28  H11       51.8530   -5.1120    8.1620 H     512  INH512      0.1640
     29  C15       50.7980   -5.3720    6.4890 C.2   512  INH512      0.3140
     30  N4        50.8590   -5.7520    5.2420 N.am  512  INH512     -0.3520
     31  O2        49.7220   -5.0340    6.9330 O.2   512  INH512     -0.2480
     32  H13       51.7320   -6.0430    4.8500 H     512  INH512      0.1600
     33  H12       50.0340   -5.7520    4.6780 H     512  INH512      0.1600
@<TRIPOS>BOND
     1    33    30    1
     2    32    30    1
     3    30    29   am
     4    29    31    2
     5    29    27   am
     6    26    27    1
     7    26    21    1
     8    20    21   ar
     9    20    19   ar
    10    27    28    1
    11    21    22   ar
    12    19    18   ar
    13    22    17   ar
    14    18    17   ar
    15    17    15    1
    16    15    14   ar
    17    15    16   ar
    18    14    13   ar
    19    25    24    1
    20    24    16    1
    21    16    11   ar
    22    13    12   ar
    23    23     8    1
    24    12    11   ar
    25    11    10    1
    26     8    10   ar
    27     8     5   ar
    28    10     9   ar
    29     4     5    1
    30     4     3    2
    31     5     6   ar
    32     9     6   ar
    33     6     7    1
    34     3     1    1
    35     1     7    1
    36     1     2    1
