@<TRIPOS>MOLECULE
/tmp/ewbell/vina_2w26_2w26_lig/vina/vina2.pdbqt
 30 33 0 0 0
SMALL
GASTEIGER

@<TRIPOS>ATOM
      1  N2         4.8900    5.4510   21.8700 N.am  291  INH291     -0.2910
      2  C11        3.6840    5.2410   22.5420 C.2   291  INH291      0.3680
      3  C12        5.4880    6.6970   22.4080 C.3   291  INH291      0.1680
      4  O3         3.4150    6.1860   23.4830 O.3   291  INH291     -0.2950
      5  C13        4.4060    7.2080   23.3760 C.3   291  INH291      0.1700
      6  O4         2.9360    4.3040   22.3300 O.2   291  INH291     -0.2380
      7  C5         5.4780    4.6210   20.8430 C.ar  291  INH291      0.0390
      8  C7         5.9910    3.3160   21.1240 C.ar  291  INH291      0.0320
      9  C9         6.5810    2.5380   20.1060 C.ar  291  INH291      0.0320
     10  C10        6.6570    3.0450   18.7950 C.ar  291  INH291      0.0370
     11  C8         6.1390    4.3350   18.5240 C.ar  291  INH291      0.0320
     12  C6         5.5630    5.1070   19.5300 C.ar  291  INH291      0.0320
     13  N1         7.2460    2.2810   17.7430 N.am  291  INH291     -0.3140
     14  C1         6.3550    1.7490   16.6560 C.3   291  INH291      0.1580
     15  C2         7.1500    1.2060   15.4470 C.3   291  INH291      0.1880
     16  O1         8.2380    0.4140   15.9430 O.3   291  INH291     -0.3800
     17  C4         9.2410    1.2080   16.6050 C.3   291  INH291      0.2710
     18  C3         8.6290    2.0350   17.7350 C.2   291  INH291      0.2480
     19  O2         9.3430    2.4740   18.6210 O.2   291  INH291     -0.2710
     20  C14        4.9830    7.6080   24.7650 C.3   291  INH291      0.1570
     21  N3         6.4740    7.4730   24.9520 N.am  291  INH291     -0.3540
     22  C15        7.3250    8.5830   24.7470 C.2   291  INH291      0.2580
     23  O5         6.8470    9.6530   24.4160 O.2   291  INH291     -0.2670
     24  H16        6.8630    6.5920   25.2250 H     291  INH291      0.1620
     25  C17        8.8080    8.4920   24.9540 C.ar  291  INH291      0.0740
     26  S1         9.5250    7.7000   26.1840 S.2   291  INH291     -0.0720
     27  C16       11.0440    7.9870   25.8050 C.ar  291  INH291      0.0750
     28 Cl1        12.4470    7.4380   26.7270 Cl    291  INH291     -0.0760
     29  C18       11.0810    8.7550   24.6280 C.ar  291  INH291      0.0330
     30  C19        9.7970    9.0430   24.1390 C.ar  291  INH291      0.0270
@<TRIPOS>BOND
     1    15    16    1
     2    15    14    1
     3    16    17    1
     4    17    18    1
     5    14    13    1
     6    18    13   am
     7    18    19    2
     8    13    10    1
     9    11    10   ar
    10    11    12   ar
    11    10     9   ar
    12    12     7   ar
    13     9     8   ar
    14     7     8   ar
    15     7     1    1
    16     1     3    1
    17     1     2   am
    18     6     2    2
    19     3     5    1
    20     2     4    1
    21     5     4    1
    22     5    20    1
    23    30    29   ar
    24    30    25   ar
    25    23    22    2
    26    29    27   ar
    27    22    21   am
    28    22    25    1
    29    20    21    1
    30    21    24    1
    31    25    26   ar
    32    27    26   ar
    33    27    28    1
