@<TRIPOS>MOLECULE
/tmp/ewbell/vina_2w26_2w26_lig/vina/vina3.pdbqt
 30 33 0 0 0
SMALL
GASTEIGER

@<TRIPOS>ATOM
      1  N2         7.1060   10.4450   18.9110 N.am  291  INH291     -0.2910
      2  C11        7.9090   11.3400   19.6210 C.2   291  INH291      0.3680
      3  C12        7.1990    9.1300   19.5910 C.3   291  INH291      0.1680
      4  O3         8.5100   10.7870   20.7080 O.3   291  INH291     -0.2950
      5  C13        8.2440    9.3850   20.6920 C.3   291  INH291      0.1700
      6  O4         8.0610   12.5100   19.3190 O.2   291  INH291     -0.2380
      7  C5         6.3110   10.7200   17.7360 C.ar  291  INH291      0.0390
      8  C7         6.8880   10.7890   16.4280 C.ar  291  INH291      0.0320
      9  C9         6.0900   11.0820   15.3030 C.ar  291  INH291      0.0320
     10  C10        4.7080   11.2970   15.4630 C.ar  291  INH291      0.0370
     11  C8         4.1440   11.2190   16.7600 C.ar  291  INH291      0.0320
     12  C6         4.9320   10.9380   17.8740 C.ar  291  INH291      0.0320
     13  N1         3.8740   11.5940   14.3440 N.am  291  INH291     -0.3140
     14  C1         3.2570   10.4520   13.5850 C.3   291  INH291      0.1580
     15  C2         2.1600   10.9150   12.6010 C.3   291  INH291      0.1880
     16  O1         2.6410   12.0720   11.9020 O.3   291  INH291     -0.3800
     17  C4         2.7560   13.2250   12.7580 C.3   291  INH291      0.2710
     18  C3         3.6440   12.9270   13.9640 C.2   291  INH291      0.2480
     19  O2         4.1480   13.8450   14.5890 O.2   291  INH291     -0.2710
     20  C14        7.7880    8.8630   22.0850 C.3   291  INH291      0.1570
     21  N3         8.8680    8.4010   23.0310 N.am  291  INH291     -0.3540
     22  C15        8.7280    8.5890   24.4250 C.2   291  INH291      0.2580
     23  O5         7.7270    9.1290   24.8610 O.2   291  INH291     -0.2670
     24  H16        9.6900    7.9570   22.6700 H     291  INH291      0.1620
     25  C17        9.7680    8.1160   25.3970 C.ar  291  INH291      0.0740
     26  S1        11.3730    8.3360   25.2160 S.2   291  INH291     -0.0720
     27  C16       11.8670    7.6280   26.5530 C.ar  291  INH291      0.0750
     28 Cl1        13.5530    7.4520   27.0510 Cl    291  INH291     -0.0760
     29  C18       10.7460    7.1570   27.2590 C.ar  291  INH291      0.0330
     30  C19        9.5420    7.4400   26.5960 C.ar  291  INH291      0.0270
@<TRIPOS>BOND
     1    16    15    1
     2    16    17    1
     3    15    14    1
     4    17    18    1
     5    14    13    1
     6    18    13   am
     7    18    19    2
     8    13    10    1
     9     9    10   ar
    10     9     8   ar
    11    10    11   ar
    12     8     7   ar
    13    11    12   ar
    14     7    12   ar
    15     7     1    1
    16     1     3    1
    17     1     2   am
    18     6     2    2
    19     3     5    1
    20     2     4    1
    21     5     4    1
    22     5    20    1
    23    20    21    1
    24    24    21    1
    25    21    22   am
    26    22    23    2
    27    22    25    1
    28    26    25   ar
    29    26    27   ar
    30    25    30   ar
    31    27    28    1
    32    27    29   ar
    33    30    29   ar
