@<TRIPOS>MOLECULE
/tmp/ewbell/vina_2w26_2w26_lig/vina/vina4.pdbqt
 30 33 0 0 0
SMALL
GASTEIGER

@<TRIPOS>ATOM
      1  N2         7.9190    7.4150   20.4800 N.am  291  INH291     -0.2910
      2  C11        8.4170    8.6500   20.0590 C.2   291  INH291      0.3680
      3  C12        8.0610    7.3580   21.9550 C.3   291  INH291      0.1680
      4  O3         8.8550    9.4360   21.0800 O.3   291  INH291     -0.2950
      5  C13        8.8060    8.6650   22.2800 C.3   291  INH291      0.1700
      6  O4         8.4550    9.0130   18.8980 O.2   291  INH291     -0.2380
      7  C5         7.3530    6.3710   19.6570 C.ar  291  INH291      0.0390
      8  C7         8.0020    5.1090   19.4780 C.ar  291  INH291      0.0320
      9  C9         7.4370    4.1170   18.6510 C.ar  291  INH291      0.0320
     10  C10        6.2130    4.3640   18.0010 C.ar  291  INH291      0.0370
     11  C8         5.5720    5.6140   18.1890 C.ar  291  INH291      0.0320
     12  C6         6.1340    6.5970   19.0000 C.ar  291  INH291      0.0320
     13  N1         5.6140    3.3800   17.1590 N.am  291  INH291     -0.3140
     14  C1         5.9120    3.4170   15.6860 C.3   291  INH291      0.1580
     15  C2         5.4470    2.1400   14.9510 C.3   291  INH291      0.1880
     16  O1         4.1310    1.8090   15.4150 O.3   291  INH291     -0.3800
     17  C4         4.1240    1.3640   16.7840 C.3   291  INH291      0.2710
     18  C3         4.7630    2.4040   17.7030 C.2   291  INH291      0.2480
     19  O2         4.5300    2.3820   18.9000 O.2   291  INH291     -0.2710
     20  C14        8.1530    9.4530   23.4520 C.3   291  INH291      0.1570
     21  N3         6.6560    9.3440   23.6010 N.am  291  INH291     -0.3540
     22  C15        6.0930    8.4710   24.5600 C.2   291  INH291      0.2580
     23  O5         6.8250    7.8030   25.2670 O.2   291  INH291     -0.2670
     24  H16        6.0570    9.8950   23.0180 H     291  INH291      0.1620
     25  C17        4.6090    8.3600   24.7550 C.ar  291  INH291      0.0740
     26  S1         3.6830    7.1620   24.1530 S.2   291  INH291     -0.0720
     27  C16        2.2740    7.6360   24.7220 C.ar  291  INH291      0.0750
     28 Cl1         0.7350    6.8120   24.4520 Cl    291  INH291     -0.0760
     29  C18        2.4570    8.8190   25.4600 C.ar  291  INH291      0.0330
     30  C19        3.7980    9.2320   25.4800 C.ar  291  INH291      0.0270
@<TRIPOS>BOND
     1    15    16    1
     2    15    14    1
     3    16    17    1
     4    14    13    1
     5    17    18    1
     6    13    18   am
     7    13    10    1
     8    18    19    2
     9    10    11   ar
    10    10     9   ar
    11    11    12   ar
    12     9     8   ar
    13     6     2    2
    14    12     7   ar
    15     8     7   ar
    16     7     1    1
    17     2     1   am
    18     2     4    1
    19     1     3    1
    20     4     5    1
    21     3     5    1
    22     5    20    1
    23    24    21    1
    24    20    21    1
    25    21    22   am
    26    26    27   ar
    27    26    25   ar
    28    28    27    1
    29    22    25    1
    30    22    23    2
    31    27    29   ar
    32    25    30   ar
    33    29    30   ar
