@<TRIPOS>MOLECULE
/tmp/ewbell/vina_2w26_2w26_lig/vina/vina1.pdbqt
 30 33 0 0 0
SMALL
GASTEIGER

@<TRIPOS>ATOM
      1  N2         6.0910    8.0800   20.6030 N.am  291  INH291     -0.2910
      2  C11        7.0160    7.0930   20.9500 C.2   291  INH291      0.3680
      3  C12        5.2120    8.2990   21.7770 C.3   291  INH291      0.1680
      4  O3         6.8740    6.6410   22.2250 O.3   291  INH291     -0.2950
      5  C13        5.6940    7.2280   22.7720 C.3   291  INH291      0.1700
      6  O4         7.8790    6.6700   20.2030 O.2   291  INH291     -0.2380
      7  C5         5.9910    8.7850   19.3450 C.ar  291  INH291      0.0390
      8  C7         5.2560    8.2590   18.2370 C.ar  291  INH291      0.0320
      9  C9         5.1950    8.9600   17.0140 C.ar  291  INH291      0.0320
     10  C10        5.8540   10.1970   16.8840 C.ar  291  INH291      0.0370
     11  C8         6.5730   10.7150   17.9900 C.ar  291  INH291      0.0320
     12  C6         6.6410   10.0200   19.1950 C.ar  291  INH291      0.0320
     13  N1         5.8090   10.9300   15.6610 N.am  291  INH291     -0.3140
     14  C1         4.6450   11.8500   15.4160 C.3   291  INH291      0.1580
     15  C2         4.8710   12.7880   14.2100 C.3   291  INH291      0.1880
     16  O1         5.4210   12.0150   13.1340 O.3   291  INH291     -0.3800
     17  C4         6.7650   11.5730   13.4020 C.3   291  INH291      0.2710
     18  C3         6.8340   10.7870   14.7100 C.2   291  INH291      0.2480
     19  O2         7.7750   10.0400   14.9200 O.2   291  INH291     -0.2710
     20  C14        5.9330    7.7970   24.2000 C.3   291  INH291      0.1570
     21  N3         7.1970    7.3690   24.9050 N.am  291  INH291     -0.3540
     22  C15        8.2790    8.2680   25.0440 C.2   291  INH291      0.2580
     23  O5         8.1860    9.3950   24.5900 O.2   291  INH291     -0.2670
     24  H16        7.2690    6.4430   25.2770 H     291  INH291      0.1620
     25  C17        9.5380    7.8870   25.7650 C.ar  291  INH291      0.0740
     26  S1        11.0370    8.3360   25.3120 S.2   291  INH291     -0.0720
     27  C16       11.8640    7.6240   26.4710 C.ar  291  INH291      0.0750
     28 Cl1        13.6230    7.6530   26.6360 Cl    291  INH291     -0.0760
     29  C18       10.9680    6.9630   27.3290 C.ar  291  INH291      0.0330
     30  C19        9.6320    7.1160   26.9250 C.ar  291  INH291      0.0270
@<TRIPOS>BOND
     1    16    17    1
     2    16    15    1
     3    17    18    1
     4    15    14    1
     5    18    19    2
     6    18    13   am
     7    14    13    1
     8    13    10    1
     9    10     9   ar
    10    10    11   ar
    11     9     8   ar
    12    11    12   ar
    13     8     7   ar
    14    12     7   ar
    15     7     1    1
    16     6     2    2
    17     1     2   am
    18     1     3    1
    19     2     4    1
    20     3     5    1
    21     4     5    1
    22     5    20    1
    23    20    21    1
    24    23    22    2
    25    21    22   am
    26    21    24    1
    27    22    25    1
    28    26    25   ar
    29    26    27   ar
    30    25    30   ar
    31    27    28    1
    32    27    29   ar
    33    30    29   ar
