@<TRIPOS>MOLECULE
/tmp/ewbell/vina_2w26_2w26_lig/vina/vina5.pdbqt
 30 33 0 0 0
SMALL
GASTEIGER

@<TRIPOS>ATOM
      1  N2         3.1790    7.8810   22.6700 N.am  291  INH291     -0.2910
      2  C11        2.3620    6.7610   22.8460 C.2   291  INH291      0.3680
      3  C12        2.3970    8.8850   21.9060 C.3   291  INH291      0.1680
      4  O3         1.1200    6.9050   22.3120 O.3   291  INH291     -0.2950
      5  C13        1.0930    8.1330   21.5840 C.3   291  INH291      0.1700
      6  O4         2.7060    5.7490   23.4280 O.2   291  INH291     -0.2380
      7  C5         4.5320    8.0630   23.1410 C.ar  291  INH291      0.0390
      8  C7         5.6590    7.5350   22.4360 C.ar  291  INH291      0.0320
      9  C9         6.9680    7.7100   22.9320 C.ar  291  INH291      0.0320
     10  C10        7.1710    8.4210   24.1300 C.ar  291  INH291      0.0370
     11  C8         6.0500    8.9480   24.8190 C.ar  291  INH291      0.0320
     12  C6         4.7570    8.7690   24.3330 C.ar  291  INH291      0.0320
     13  N1         8.4830    8.6160   24.6570 N.am  291  INH291     -0.3140
     14  C1         8.9090    7.7980   25.8450 C.3   291  INH291      0.1580
     15  C2        10.4260    7.8940   26.1200 C.3   291  INH291      0.1880
     16  O1        10.8170    9.2700   26.0110 O.3   291  INH291     -0.3800
     17  C4        10.7460    9.7580   24.6590 C.3   291  INH291      0.2710
     18  C3         9.3490    9.5570   24.0750 C.2   291  INH291      0.2480
     19  O2         8.9930   10.2130   23.1100 O.2   291  INH291     -0.2710
     20  C14       -0.1780    8.9720   21.9030 C.3   291  INH291      0.1570
     21  N3        -0.9130    8.6440   23.1800 N.am  291  INH291     -0.3540
     22  C15       -0.7850    9.4780   24.3140 C.2   291  INH291      0.2580
     23  O5        -0.0760   10.4660   24.2560 O.2   291  INH291     -0.2670
     24  H16       -1.4950    7.8310   23.2240 H     291  INH291      0.1620
     25  C17       -1.5250    9.1990   25.5890 C.ar  291  INH291      0.0740
     26  S1        -0.9140    8.3670   26.8500 S.2   291  INH291     -0.0720
     27  C16       -2.1690    8.4510   27.8260 C.ar  291  INH291      0.0750
     28 Cl1        -2.2590    7.7300   29.4370 Cl    291  INH291     -0.0760
     29  C18       -3.1910    9.1770   27.1900 C.ar  291  INH291      0.0330
     30  C19       -2.8190    9.6090   25.9080 C.ar  291  INH291      0.0270
@<TRIPOS>BOND
     1     5    20    1
     2     5     3    1
     3     5     4    1
     4    20    21    1
     5     3     1    1
     6     4     2    1
     7     8     9   ar
     8     8     7   ar
     9     1     2   am
    10     1     7    1
    11     2     6    2
    12     9    10   ar
    13    19    18    2
    14     7    12   ar
    15    21    24    1
    16    21    22   am
    17    18    13   am
    18    18    17    1
    19    10    13    1
    20    10    11   ar
    21    23    22    2
    22    22    25    1
    23    12    11   ar
    24    13    14    1
    25    17    16    1
    26    25    30   ar
    27    25    26   ar
    28    14    15    1
    29    30    29   ar
    30    16    15    1
    31    26    27   ar
    32    29    27   ar
    33    27    28    1
