@<TRIPOS>MOLECULE
./ligand/2uwp_lig.pdb
 52 54 0 0 0
SMALL
GASTEIGER

@<TRIPOS>ATOM
      1 Cl1        13.8890    7.1760   26.1240 Cl    297  INH297     -0.0758
      2  C1        12.1960    7.4610   26.0640 C.ar  297  INH297      0.0783
      3  C2        11.3440    7.0710   27.0180 C.ar  297  INH297     -0.0359
      4  C3         9.9840    7.4670   26.6680 C.ar  297  INH297     -0.0501
      5  C4         9.8990    8.1260   25.5140 C.ar  297  INH297     -0.0072
      6  C5         8.6340    8.6640   24.9060 C.3   297  INH297     -0.0005
      7  S1         6.5040    8.5600   23.3070 S.O2  297  INH297      0.0304
      8  O1         6.3800    9.8990   22.8120 O.2   297  INH297     -0.1582
      9  O2         5.7680    8.1660   24.4680 O.2   297  INH297     -0.1582
     10  N1         5.9590    7.6380   21.9600 N.3   297  INH297     -0.1826
     11  C6         5.9090    6.2060   22.0910 C.3   297  INH297      0.1060
     12  C7         4.6250    5.5960   21.5360 C.3   297  INH297     -0.0116
     13  C8         5.0760    4.4400   20.6470 C.3   297  INH297      0.0174
     14  C9         7.0300    5.5660   21.2890 C.2   297  INH297      0.2349
     15  O3         8.1800    5.9910   21.2610 O.2   297  INH297     -0.2738
     16  N2         6.5420    4.4800   20.6680 N.am  297  INH297     -0.2888
     17  C10        7.3880    3.4230   20.1030 C.3   297  INH297      0.0996
     18  C11        7.0020    2.0600   20.7060 C.3   297  INH297     -0.0379
     19  C12        7.2960    3.4220   18.5590 C.2   297  INH297      0.2360
     20  O4         6.2350    3.7630   18.0380 O.2   297  INH297     -0.2736
     21  N3         8.3940    3.0620   17.8140 N.am  297  INH297     -0.2956
     22  C13        9.6610    2.5140   18.3470 C.3   297  INH297      0.0382
     23  C14       10.1760    1.3400   17.5190 C.3   297  INH297      0.0635
     24  O5        10.1400    1.7080   16.1540 O.3   297  INH297     -0.3767
     25  C15        8.8510    2.0060   15.6560 C.3   297  INH297      0.0635
     26  C16        8.3430    3.2580   16.3530 C.3   297  INH297      0.0382
     27  S2        11.4660    8.3100   24.7160 S.2   297  INH297     -0.0817
     28  C17        8.2600    8.2020   23.5050 C.3   297  INH297      0.0862
     29  H1        11.6240    6.5360   27.9240 H     297  INH297      0.0638
     30  H2         9.1200    7.2450   27.2920 H     297  INH297      0.0626
     31  H3         8.7270    9.7600   24.8750 H     297  INH297      0.0334
     32  H4         7.8060    8.3850   25.5740 H     297  INH297      0.0334
     33  H5         5.6840    8.0850   21.1090 H     297  INH297      0.1485
     34  H6         6.0090    5.9480   23.1560 H     297  INH297      0.0573
     35  H7         4.0690    6.3400   20.9470 H     297  INH297      0.0301
     36  H8         3.9890    5.2270   22.3540 H     297  INH297      0.0301
     37  H9         4.7020    4.5750   19.6210 H     297  INH297      0.0465
     38  H10        4.7120    3.4820   21.0470 H     297  INH297      0.0465
     39  H11        8.4320    3.6330   20.3790 H     297  INH297      0.0594
     40  H12        7.6410    1.2750   20.2760 H     297  INH297      0.0252
     41  H13        5.9490    1.8420   20.4760 H     297  INH297      0.0252
     42  H14        7.1400    2.0890   21.7970 H     297  INH297      0.0252
     43  H15        9.4930    2.1720   19.3790 H     297  INH297      0.0487
     44  H16       10.4200    3.3100   18.3430 H     297  INH297      0.0487
     45  H17        9.5370    0.4600   17.6840 H     297  INH297      0.0575
     46  H18       11.2090    1.1030   17.8130 H     297  INH297      0.0575
     47  H19        8.1710    1.1660   15.8600 H     297  INH297      0.0575
     48  H20        8.9030    2.1810   14.5710 H     297  INH297      0.0575
     49  H21        8.9750    4.1140   16.0760 H     297  INH297      0.0487
     50  H22        7.3050    3.4540   16.0450 H     297  INH297      0.0487
     51  H23        8.4430    7.1230   23.3980 H     297  INH297      0.0519
     52  H24        8.8480    8.7500   22.7540 H     297  INH297      0.0519
@<TRIPOS>BOND
     1     1     2    1
     2     2     3   ar
     3     2    27   ar
     4     3     4   ar
     5     3    29    1
     6     4     5   ar
     7     4    30    1
     8     5     6    1
     9     5    27   ar
    10     6    28    1
    11     6    32    1
    12     6    31    1
    13     7    28    1
    14     7    10    1
    15     7     9    2
    16     7     8    2
    17    10    33    1
    18    10    11    1
    19    11    34    1
    20    11    14    1
    21    11    12    1
    22    12    36    1
    23    12    35    1
    24    12    13    1
    25    13    38    1
    26    13    37    1
    27    13    16    1
    28    14    16   am
    29    14    15    2
    30    16    17    1
    31    17    39    1
    32    17    19    1
    33    17    18    1
    34    18    42    1
    35    18    41    1
    36    18    40    1
    37    19    21   am
    38    19    20    2
    39    21    26    1
    40    21    22    1
    41    22    44    1
    42    22    43    1
    43    22    23    1
    44    23    46    1
    45    23    45    1
    46    23    24    1
    47    24    25    1
    48    25    48    1
    49    25    47    1
    50    25    26    1
    51    26    50    1
    52    26    49    1
    53    28    52    1
    54    28    51    1
