@<TRIPOS>MOLECULE
/tmp/ewbell/vina_2uwp_2uwp_lig/vina/vina1.pdbqt
 29 31 0 0 0
SMALL
GASTEIGER

@<TRIPOS>ATOM
      1  C6         6.8980    7.1390   21.2950 C.3   297  INH297      0.1860
      2  C7         8.1660    7.2410   20.4530 C.3   297  INH297      0.0550
      3  C8         7.9600    6.2740   19.2900 C.3   297  INH297      0.1290
      4  C9         6.1540    5.9330   20.7450 C.2   297  INH297      0.2440
      5  O3         5.2280    5.3770   21.3270 O.2   297  INH297     -0.2710
      6  N2         6.6680    5.6290   19.5430 N.am  297  INH297     -0.3370
      7  N1         7.1620    6.9630   22.6990 N.3   297  INH297     -0.3060
      8  H5         7.9040    6.3690   23.0100 H     297  INH297      0.1730
      9  S1         6.1670    7.8010   23.8260 S.O2  297  INH297      0.2270
     10  O2         5.2690    6.8700   24.4350 O.2   297  INH297     -0.2060
     11  O1         5.6430    8.8620   23.0180 O.2   297  INH297     -0.2060
     12  C17        7.2700    8.5290   25.0510 C.3   297  INH297      0.1680
     13  C5         8.6500    8.5740   24.4090 C.3   297  INH297      0.0630
     14  C4         9.8240    8.1060   25.2230 C.ar  297  INH297     -0.0150
     15  C3         9.7530    7.3750   26.3330 C.ar  297  INH297      0.0170
     16  C2        11.0550    7.0750   26.9220 C.ar  297  INH297      0.0320
     17  C1        12.0290    7.6060   26.1750 C.ar  297  INH297      0.0750
     18 Cl1        13.7000    7.4680   26.5510 Cl    297  INH297     -0.0760
     19  S2        11.4880    8.4840   24.7590 S.2   297  INH297     -0.0830
     20  C10        5.9890    4.7700   18.5670 C.3   297  INH297      0.1750
     21  C11        4.6610    5.4160   18.1300 C.3   297  INH297      0.0420
     22  C12        6.9160    4.4760   17.3640 C.2   297  INH297      0.2420
     23  N3         7.5890    3.2790   17.3030 N.am  297  INH297     -0.3460
     24  C16        7.3720    2.2980   18.3820 C.3   297  INH297      0.1520
     25  C13        8.5090    2.8570   16.2240 C.3   297  INH297      0.1520
     26  C15        8.7120    1.7530   18.8490 C.3   297  INH297      0.1870
     27  O5         9.4000    1.2350   17.7280 O.3   297  INH297     -0.3880
     28  C14        9.7760    2.2020   16.7670 C.3   297  INH297      0.1870
     29  O4         7.0350    5.3400   16.4960 O.2   297  INH297     -0.2710
@<TRIPOS>BOND
     1    25    28    1
     2    25    23    1
     3    29    22    2
     4    28    27    1
     5    23    22   am
     6    23    24    1
     7    22    20    1
     8    27    26    1
     9    21    20    1
    10    24    26    1
    11    20     6    1
    12     3     6    1
    13     3     2    1
    14     6     4   am
    15     2     1    1
    16     4     1    1
    17     4     5    2
    18     1     7    1
    19     7     8    1
    20     7     9    1
    21    11     9    2
    22     9    10    2
    23     9    12    1
    24    13    12    1
    25    13    14    1
    26    19    14   ar
    27    19    17   ar
    28    14    15   ar
    29    17    18    1
    30    17    16   ar
    31    15    16   ar
