@<TRIPOS>MOLECULE
/tmp/ewbell/vina_2uwp_2uwp_lig/vina/vina3.pdbqt
 29 31 0 0 0
SMALL
GASTEIGER

@<TRIPOS>ATOM
      1  C6         7.0150    6.6260   21.1730 C.3   297  INH297      0.1860
      2  C7         5.5960    6.3090   21.6360 C.3   297  INH297      0.0550
      3  C8         5.3460    4.8620   21.2180 C.3   297  INH297      0.1290
      4  C9         7.4080    5.4630   20.2760 C.2   297  INH297      0.2440
      5  O3         8.3670    5.4830   19.5120 O.2   297  INH297     -0.2710
      6  N2         6.5550    4.4500   20.4960 N.am  297  INH297     -0.3370
      7  N1         7.1120    7.8660   20.4500 N.3   297  INH297     -0.3060
      8  H5         6.7170    7.9590   19.5360 H     297  INH297      0.1730
      9  S1         7.9250    9.1840   21.2020 S.O2  297  INH297      0.2270
     10  O2         7.3930   10.4100   20.6900 O.2   297  INH297     -0.2060
     11  O1         9.2980    8.8550   20.9620 O.2   297  INH297     -0.2060
     12  C17        7.6210    9.0400   22.9720 C.3   297  INH297      0.1680
     13  C5         8.7550    9.7850   23.6620 C.3   297  INH297      0.0630
     14  C4         9.6540    9.0070   24.5830 C.ar  297  INH297     -0.0150
     15  C3         9.2640    8.3490   25.6720 C.ar  297  INH297      0.0170
     16  C2        10.3560    7.6910   26.3820 C.ar  297  INH297      0.0320
     17  C1        11.5120    7.8980   25.7410 C.ar  297  INH297      0.0750
     18 Cl1        13.0230    7.2820   26.2770 Cl    297  INH297     -0.0760
     19  S2        11.3930    8.8710   24.2880 S.2   297  INH297     -0.0830
     20  C10        6.8210    3.0660   20.0890 C.3   297  INH297      0.1750
     21  C11        5.9260    2.1000   20.8880 C.3   297  INH297      0.0420
     22  C12        6.6350    2.9030   18.5620 C.2   297  INH297      0.2420
     23  N3         7.6430    2.3470   17.8120 N.am  297  INH297     -0.3460
     24  C16        8.8620    1.8920   18.5040 C.3   297  INH297      0.1520
     25  C13        7.6140    2.1290   16.3480 C.3   297  INH297      0.1520
     26  C15       10.0870    2.3850   17.7510 C.3   297  INH297      0.1870
     27  O5         9.9920    1.9530   16.4090 O.3   297  INH297     -0.3880
     28  C14        8.9260    2.5280   15.6780 C.3   297  INH297      0.1870
     29  O4         5.5830    3.2950   18.0590 O.2   297  INH297     -0.2710
@<TRIPOS>BOND
     1    28    25    1
     2    28    27    1
     3    25    23    1
     4    27    26    1
     5    26    24    1
     6    23    24    1
     7    23    22   am
     8    29    22    2
     9    22    20    1
    10     5     4    2
    11     8     7    1
    12    20     6    1
    13    20    21    1
    14     4     6   am
    15     4     1    1
    16     7     1    1
    17     7     9    1
    18     6     3    1
    19    10     9    2
    20    11     9    2
    21     1     2    1
    22     9    12    1
    23     3     2    1
    24    12    13    1
    25    13    14    1
    26    19    14   ar
    27    19    17   ar
    28    14    15   ar
    29    15    16   ar
    30    17    18    1
    31    17    16   ar
