@<TRIPOS>MOLECULE
/tmp/ewbell/vina_2uwp_2uwp_lig/vina/vina4.pdbqt
 29 31 0 0 0
SMALL
GASTEIGER

@<TRIPOS>ATOM
      1  C6         8.2850    8.6360   21.0370 C.3   297  INH297      0.1860
      2  C7         8.3420    9.3300   19.6790 C.3   297  INH297      0.0550
      3  C8         7.5260    8.4470   18.7380 C.3   297  INH297      0.1290
      4  C9         7.6900    7.2660   20.7570 C.2   297  INH297      0.2440
      5  O3         7.7300    6.3290   21.5470 O.2   297  INH297     -0.2710
      6  N2         7.1160    7.2920   19.5440 N.am  297  INH297     -0.3370
      7  N1         9.5760    8.5000   21.6580 N.3   297  INH297     -0.3060
      8  H5        10.3350    8.0650   21.1730 H     297  INH297      0.1730
      9  S1         9.7790    9.1080   23.2560 S.O2  297  INH297      0.2270
     10  O2         9.2680   10.4420   23.3130 O.2   297  INH297     -0.2060
     11  O1        11.1740    8.8740   23.4810 O.2   297  INH297     -0.2060
     12  C17        8.8500    8.0150   24.3480 C.3   297  INH297      0.1680
     13  C5         7.5740    8.7610   24.7120 C.3   297  INH297      0.0630
     14  C4         6.2890    8.3170   24.0700 C.ar  297  INH297     -0.0150
     15  C3         5.6970    7.1390   24.2540 C.ar  297  INH297      0.0170
     16  C2         4.4630    6.9770   23.4930 C.ar  297  INH297      0.0320
     17  C1         4.2090    8.0850   22.7880 C.ar  297  INH297      0.0750
     18 Cl1         2.8420    8.2710   21.7650 Cl    297  INH297     -0.0760
     19  S2         5.3890    9.3680   22.9680 S.2   297  INH297     -0.0830
     20  C10        6.1480    6.2890   19.0860 C.3   297  INH297      0.1750
     21  C11        4.9960    6.9760   18.3280 C.3   297  INH297      0.0420
     22  C12        6.8490    5.2120   18.2250 C.2   297  INH297      0.2420
     23  N3         6.9090    3.9160   18.6780 N.am  297  INH297     -0.3460
     24  C16        6.2660    3.5930   19.9650 C.3   297  INH297      0.1520
     25  C13        7.5440    2.7800   17.9730 C.3   297  INH297      0.1520
     26  C15        7.2120    2.7540   20.8080 C.3   297  INH297      0.1870
     27  O5         7.5980    1.6210   20.0560 O.3   297  INH297     -0.3880
     28  C14        8.3760    1.9090   18.9110 C.3   297  INH297      0.1870
     29  O4         7.3500    5.5560   17.1550 O.2   297  INH297     -0.2710
@<TRIPOS>BOND
     1    29    22    2
     2    25    23    1
     3    25    28    1
     4    22    23   am
     5    22    20    1
     6    21    20    1
     7    23    24    1
     8     3     6    1
     9     3     2    1
    10    28    27    1
    11    20     6    1
    12     6     4   am
    13     2     1    1
    14    24    26    1
    15    27    26    1
    16     4     1    1
    17     4     5    2
    18     1     7    1
    19     8     7    1
    20     7     9    1
    21    18    17    1
    22    17    19   ar
    23    17    16   ar
    24    19    14   ar
    25     9    10    2
    26     9    11    2
    27     9    12    1
    28    16    15   ar
    29    14    15   ar
    30    14    13    1
    31    12    13    1
