@<TRIPOS>MOLECULE
/tmp/ewbell/vina_2uwp_2uwp_lig/vina/vina5.pdbqt
 29 31 0 0 0
SMALL
GASTEIGER

@<TRIPOS>ATOM
      1  C6         6.9450    6.8460   21.6070 C.3   297  INH297      0.1860
      2  C7         6.1020    7.8610   20.8410 C.3   297  INH297      0.0550
      3  C8         5.6070    7.1240   19.5990 C.3   297  INH297      0.1290
      4  C9         7.1280    5.6800   20.6500 C.2   297  INH297      0.2440
      5  O3         7.9600    4.7930   20.8030 O.2   297  INH297     -0.2710
      6  N2         6.2230    5.7940   19.6640 N.am  297  INH297     -0.3370
      7  N1         8.2250    7.3620   22.0120 N.3   297  INH297     -0.3060
      8  H5         9.0470    7.1770   21.4730 H     297  INH297      0.1730
      9  S1         8.3050    8.3090   23.4480 S.O2  297  INH297      0.2270
     10  O2         8.1230    9.6860   23.1060 O.2   297  INH297     -0.2060
     11  O1         9.5490    7.8780   24.0120 O.2   297  INH297     -0.2060
     12  C17        6.9790    7.7310   24.5230 C.3   297  INH297      0.1680
     13  C5         5.9370    8.8410   24.5490 C.3   297  INH297      0.0630
     14  C4         4.4900    8.4490   24.6620 C.ar  297  INH297     -0.0150
     15  C3         3.9670    7.2930   24.2570 C.ar  297  INH297      0.0170
     16  C2         2.5290    7.1900   24.4820 C.ar  297  INH297      0.0320
     17  C1         2.0750    8.3010   25.0710 C.ar  297  INH297      0.0750
     18 Cl1         0.4280    8.5520   25.4920 Cl    297  INH297     -0.0760
     19  S2         3.2890    9.5240   25.3890 S.2   297  INH297     -0.0830
     20  C10        5.8600    4.6910   18.7680 C.3   297  INH297      0.1750
     21  C11        4.4370    4.9040   18.2190 C.3   297  INH297      0.0420
     22  C12        6.9040    4.5460   17.6350 C.2   297  INH297      0.2420
     23  N3         7.5800    3.3580   17.4850 N.am  297  INH297     -0.3460
     24  C16        7.2550    2.2470   18.3980 C.3   297  INH297      0.1520
     25  C13        8.6040    3.0680   16.4570 C.3   297  INH297      0.1520
     26  C15        8.5410    1.6270   18.9210 C.3   297  INH297      0.1870
     27  O5         9.3390    1.2510   17.8160 O.3   297  INH297     -0.3880
     28  C14        9.8100    2.3310   17.0330 C.3   297  INH297      0.1870
     29  O4         7.1100    5.5140   16.9050 O.2   297  INH297     -0.2710
@<TRIPOS>BOND
     1    25    28    1
     2    25    23    1
     3    29    22    2
     4    28    27    1
     5    23    22   am
     6    23    24    1
     7    22    20    1
     8    27    26    1
     9    21    20    1
    10    24    26    1
    11    20     6    1
    12     3     6    1
    13     3     2    1
    14     6     4   am
    15     4     5    2
    16     4     1    1
    17     2     1    1
    18     8     7    1
    19     1     7    1
    20     7     9    1
    21    10     9    2
    22     9    11    2
    23     9    12    1
    24    15    16   ar
    25    15    14   ar
    26    16    17   ar
    27    12    13    1
    28    13    14    1
    29    14    19   ar
    30    17    19   ar
    31    17    18    1
