@<TRIPOS>MOLECULE
/tmp/ewbell/vina_2uwp_2uwp_lig/vina/vina2.pdbqt
 29 31 0 0 0
SMALL
GASTEIGER

@<TRIPOS>ATOM
      1  C6         7.5270    6.5200   20.3460 C.3   297  INH297      0.1860
      2  C7         8.7460    7.3650   19.9870 C.3   297  INH297      0.0550
      3  C8         8.7190    8.5480   20.9520 C.3   297  INH297      0.1290
      4  C9         6.7120    7.3840   21.2940 C.2   297  INH297      0.2440
      5  O3         5.5430    7.1600   21.5900 O.2   297  INH297     -0.2710
      6  N2         7.4950    8.3790   21.7420 N.am  297  INH297     -0.3370
      7  N1         6.7350    6.1530   19.2030 N.3   297  INH297     -0.3060
      8  H5         6.6290    6.7790   18.4300 H     297  INH297      0.1730
      9  S1         5.9760    4.6080   19.2010 S.O2  297  INH297      0.2270
     10  O2         4.5790    4.7760   19.4580 O.2   297  INH297     -0.2060
     11  O1         6.7850    3.8850   20.1370 O.2   297  INH297     -0.2060
     12  C17        6.2490    3.8980   17.5670 C.3   297  INH297      0.1680
     13  C5         7.7220    4.1140   17.2490 C.3   297  INH297      0.0630
     14  C4         8.6370    2.9220   17.2930 C.ar  297  INH297     -0.0150
     15  C3         9.7890    2.8540   17.9560 C.ar  297  INH297      0.0170
     16  C2        10.4750    1.5740   17.8120 C.ar  297  INH297      0.0320
     17  C1         9.7540    0.7510   17.0420 C.ar  297  INH297      0.0750
     18 Cl1        10.2380   -0.8470   16.6410 Cl    297  INH297     -0.0760
     19  S2         8.2490    1.4200   16.4430 S.2   297  INH297     -0.0830
     20  C10        7.1770    9.1880   22.9240 C.3   297  INH297      0.1750
     21  C11        5.6990    9.6170   22.8880 C.3   297  INH297      0.0420
     22  C12        7.5270    8.4180   24.2190 C.2   297  INH297      0.2420
     23  N3         8.7440    8.6270   24.8250 N.am  297  INH297     -0.3460
     24  C16        9.6620    9.6150   24.2280 C.3   297  INH297      0.1520
     25  C13        9.2220    7.9670   26.0600 C.3   297  INH297      0.1520
     26  C15       11.0600    9.0230   24.1470 C.3   297  INH297      0.1870
     27  O5        11.4380    8.5900   25.4380 O.3   297  INH297     -0.3880
     28  C14       10.6750    7.5140   25.9480 C.3   297  INH297      0.1870
     29  O4         6.7030    7.6200   24.6640 O.2   297  INH297     -0.2710
@<TRIPOS>BOND
     1    19    17   ar
     2    19    14   ar
     3    18    17    1
     4    17    16   ar
     5    13    14    1
     6    13    12    1
     7    14    15   ar
     8    12     9    1
     9    16    15   ar
    10     8     7    1
    11     9     7    1
    12     9    10    2
    13     9    11    2
    14     7     1    1
    15     2     1    1
    16     2     3    1
    17     1     4    1
    18     3     6    1
    19     4     5    2
    20     4     6   am
    21     6    20    1
    22    21    20    1
    23    20    22    1
    24    26    24    1
    25    26    27    1
    26    22    29    2
    27    22    23   am
    28    24    23    1
    29    23    25    1
    30    27    28    1
    31    28    25    1
