@<TRIPOS>MOLECULE
./ligand/2jbj_lig.pdb
 21 20 0 0 0
SMALL
GASTEIGER

@<TRIPOS>ATOM
      1  O1        13.0740   47.0850   39.9020 O.co2 697  INH697     -0.2464
      2  C1        14.0690   47.5920   40.6480 C.2   697  INH697      0.3560
      3  O2        14.0590   48.8280   40.8700 O.co2 697  INH697     -0.2464
      4  C2        15.1990   46.7460   41.2650 C.3   697  INH697      0.0500
      5  C3        14.8500   45.2630   41.5020 C.3   697  INH697     -0.0293
      6  C4        16.1270   44.4920   41.9650 C.3   697  INH697      0.0677
      7  C5        17.1280   44.6370   40.8390 C.2   697  INH697      0.3595
      8  O3        17.0190   43.8850   39.7410 O.co2 697  INH697     -0.2460
      9  O4        18.0480   45.4570   40.8370 O.co2 697  INH697     -0.2460
     10  C6        16.6240   45.1230   43.2740 C.3   697  INH697      0.0143
     11  P1        17.5950   43.9790   44.2300 P.3   697  INH697      0.1093
     12  O5        18.7910   44.6540   45.2560 O.3   697  INH697     -0.3575
     13  O6        16.6370   43.1010   45.0740 O.3   697  INH697     -0.3575
     14  O7        18.4420   43.0150   43.0240 O.2   697  INH697     -0.4607
     15  H1        15.4690   47.1920   42.2340 H     697  INH697      0.0379
     16  H2        16.0650   46.7880   40.5880 H     697  INH697      0.0379
     17  H3        14.4740   44.8210   40.5670 H     697  INH697      0.0278
     18  H4        14.0750   45.1890   42.2800 H     697  INH697      0.0278
     19  H5        15.9020   43.4290   42.1330 H     697  INH697      0.0419
     20  H6        15.7550   45.4380   43.8700 H     697  INH697      0.0349
     21  H7        17.2420   46.0010   43.0340 H     697  INH697      0.0349
@<TRIPOS>BOND
     1     8     7   ar
     2     1     2   ar
     3    17     5    1
     4    16     4    1
     5     2     3   ar
     6     2     4    1
     7     9     7   ar
     8     7     6    1
     9     4     5    1
    10     4    15    1
    11     5     6    1
    12     5    18    1
    13     6    19    1
    14     6    10    1
    15    14    11    2
    16    21    10    1
    17    10    20    1
    18    10    11    1
    19    11    13    1
    20    11    12    1
