@<TRIPOS>MOLECULE
/tmp/ewbell/vina_2jbj_2jbj_lig/vina/vina2.pdbqt
 18 17 0 0 0
SMALL
GASTEIGER

@<TRIPOS>ATOM
      1  C4        20.8750   45.0150   46.0490 C.3   697  INH697      0.0950
      2  C3        20.4050   44.9130   44.5640 C.3   697  INH697      0.0260
      3  C2        18.9420   45.3850   44.4510 C.3   697  INH697      0.1110
      4  C1        17.9030   44.2590   44.2840 C.2   697  INH697      0.1390
      5  O1        17.8140   43.4760   43.1960 O.2   697  INH697     -0.6500
      6  O2        17.1030   44.0400   45.2250 O.3   697  INH697     -0.7760
      7  H         16.6790   43.2060   45.2960 H     697  INH697      0.1670
      8  C5        20.7850   43.6110   46.6090 C.2   697  INH697      0.1440
      9  O3        21.8460   42.8010   46.5700 O.2   697  INH697     -0.6500
     10  O4        19.7810   43.1520   47.1580 O.3   697  INH697     -0.7760
     11  H         18.9350   43.4960   46.9500 H     697  INH697      0.1670
     12  C6        22.3110   45.5590   46.0650 C.3   697  INH697      0.1400
     13  P1        22.4530   47.0160   47.0750 P.3   697  INH697      0.2360
     14  O7        21.2300   48.1100   46.4350 O.2   697  INH697     -0.6530
     15  O6        23.8750   47.6050   46.8980 O.3   697  INH697     -0.3290
     16  H         23.9500   48.4270   47.4080 H     697  INH697      0.2200
     17  O5        22.1250   46.8290   48.7480 O.3   697  INH697     -0.3290
     18  H         22.8690   46.3770   49.1750 H     697  INH697      0.2200
@<TRIPOS>BOND
     1     5     4    2
     2     4     3    1
     3     4     6    1
     4     3     2    1
     5     2     1    1
     6     6     7    1
     7     1    12    1
     8     1     8    1
     9    12    13    1
    10    14    13    2
    11     9     8    2
    12     8    10    1
    13    15    13    1
    14    15    16    1
    15    11    10    1
    16    13    17    1
    17    17    18    1
