@<TRIPOS>MOLECULE
/tmp/ewbell/vina_2jbj_2jbj_lig/vina/vina5.pdbqt
 18 17 0 0 0
SMALL
GASTEIGER

@<TRIPOS>ATOM
      1  C4        19.7860   45.0940   45.0490 C.3   697  INH697      0.0950
      2  C3        19.7590   46.1480   43.8960 C.3   697  INH697      0.0260
      3  C2        20.6440   47.3520   44.2760 C.3   697  INH697      0.1110
      4  C1        20.3950   47.9280   45.6830 C.2   697  INH697      0.1390
      5  O1        21.3360   48.0060   46.6390 O.2   697  INH697     -0.6500
      6  O2        19.2530   48.3720   45.9540 O.3   697  INH697     -0.7760
      7  H         18.5400   47.7790   46.0930 H     697  INH697      0.1670
      8  C5        18.7150   44.0810   44.7070 C.2   697  INH697      0.1440
      9  O3        18.4810   43.7520   43.4340 O.2   697  INH697     -0.6500
     10  O4        18.0440   43.4790   45.5480 O.3   697  INH697     -0.7760
     11  H         17.8080   42.5840   45.4060 H     697  INH697      0.1670
     12  C6        21.1880   44.4690   45.0980 C.3   697  INH697      0.1400
     13  P1        21.5720   43.8360   46.7150 P.3   697  INH697      0.2360
     14  O7        21.7980   42.1080   46.4630 O.2   697  INH697     -0.6530
     15  O6        20.3680   44.1100   47.6530 O.3   697  INH697     -0.3290
     16  H         20.6810   44.1830   48.5670 H     697  INH697      0.2200
     17  O5        23.0040   44.4220   47.4520 O.3   697  INH697     -0.3290
     18  H         23.7680   44.2020   46.8960 H     697  INH697      0.2200
@<TRIPOS>BOND
     1     9     8    2
     2     2     3    1
     3     2     1    1
     4     3     4    1
     5     8     1    1
     6     8    10    1
     7     1    12    1
     8    12    13    1
     9    11    10    1
    10     4     6    1
    11     4     5    2
    12     6     7    1
    13    14    13    2
    14    13    17    1
    15    13    15    1
    16    18    17    1
    17    15    16    1
