@<TRIPOS>MOLECULE
/tmp/ewbell/vina_2jbj_2jbj_lig/vina/vina3.pdbqt
 18 17 0 0 0
SMALL
GASTEIGER

@<TRIPOS>ATOM
      1  C4        21.1650   45.7210   46.1910 C.3   697  INH697      0.0950
      2  C3        20.8670   44.7540   45.0010 C.3   697  INH697      0.0260
      3  C2        19.5280   45.1410   44.3420 C.3   697  INH697      0.1110
      4  C1        18.4580   44.0330   44.3390 C.2   697  INH697      0.1390
      5  O1        17.8700   43.5600   43.2270 O.2   697  INH697     -0.6500
      6  O2        18.1250   43.5200   45.4350 O.3   697  INH697     -0.7760
      7  H         18.7840   43.2300   46.0370 H     697  INH697      0.1670
      8  C5        20.6780   45.0090   47.4340 C.2   697  INH697      0.1440
      9  O3        20.5680   45.6700   48.5890 O.2   697  INH697     -0.6500
     10  O4        20.3190   43.8300   47.4570 O.3   697  INH697     -0.7760
     11  H         19.4130   43.6170   47.5520 H     697  INH697      0.1670
     12  C6        22.6760   45.9920   46.2260 C.3   697  INH697      0.1400
     13  P1        23.0320   47.7040   46.5510 P.3   697  INH697      0.2360
     14  O7        23.9360   47.6820   48.0620 O.2   697  INH697     -0.6530
     15  O6        21.6920   48.4660   46.7140 O.3   697  INH697     -0.3290
     16  H         21.4850   48.5550   47.6570 H     697  INH697      0.2200
     17  O5        24.0070   48.5200   45.4010 O.3   697  INH697     -0.3290
     18  H         23.4710   48.7470   44.6250 H     697  INH697      0.2200
@<TRIPOS>BOND
     1     5     4    2
     2     4     3    1
     3     4     6    1
     4     3     2    1
     5    18    17    1
     6     2     1    1
     7    17    13    1
     8     6     7    1
     9     1    12    1
    10     1     8    1
    11    12    13    1
    12    13    15    1
    13    13    14    2
    14    15    16    1
    15     8    10    1
    16     8     9    2
    17    10    11    1
