@<TRIPOS>MOLECULE
/tmp/ewbell/vina_2jbj_2jbj_lig/vina/vina4.pdbqt
 18 17 0 0 0
SMALL
GASTEIGER

@<TRIPOS>ATOM
      1  C4        18.6360   44.5860   43.5240 C.3   697  INH697      0.0950
      2  C3        20.0030   45.1420   44.0350 C.3   697  INH697      0.0260
      3  C2        19.8950   46.6650   44.2490 C.3   697  INH697      0.1110
      4  C1        20.1020   47.1360   45.7010 C.2   697  INH697      0.1390
      5  O1        20.5050   48.3720   46.0390 O.2   697  INH697     -0.6500
      6  O2        19.8620   46.3280   46.6310 O.3   697  INH697     -0.7760
      7  H         20.0130   46.5790   47.5220 H     697  INH697      0.1670
      8  C5        18.0190   43.8610   44.7010 C.2   697  INH697      0.1440
      9  O3        16.7890   43.3490   44.6080 O.2   697  INH697     -0.6500
     10  O4        18.6020   43.6610   45.7690 O.3   697  INH697     -0.7760
     11  H         18.9030   44.3850   46.2810 H     697  INH697      0.1670
     12  C6        17.7790   45.7700   43.0530 C.3   697  INH697      0.1400
     13  P1        16.7340   45.3240   41.6840 P.3   697  INH697      0.2360
     14  O7        17.8330   44.5950   40.5170 O.2   697  INH697     -0.6530
     15  O6        16.0890   46.6120   41.1130 O.3   697  INH697     -0.3290
     16  H         15.5040   46.3800   40.3750 H     697  INH697      0.2200
     17  O5        15.5060   44.1700   41.9970 O.3   697  INH697     -0.3290
     18  H         15.1150   44.3400   42.8680 H     697  INH697      0.2200
@<TRIPOS>BOND
     1    16    15    1
     2    14    13    2
     3    15    13    1
     4    13    17    1
     5    13    12    1
     6    17    18    1
     7    12     1    1
     8     1     2    1
     9     1     8    1
    10     2     3    1
    11     3     4    1
    12     9     8    2
    13     8    10    1
    14     4     5    2
    15     4     6    1
    16    10    11    1
    17     6     7    1
