@<TRIPOS>MOLECULE
/tmp/ewbell/vina_2jbj_2jbj_lig/vina/vina1.pdbqt
 18 17 0 0 0
SMALL
GASTEIGER

@<TRIPOS>ATOM
      1  C4        15.9540   44.6370   42.1060 C.3   697  INH697      0.0950
      2  C3        14.7370   45.5580   41.7740 C.3   697  INH697      0.0260
      3  C2        15.2140   46.7660   40.9440 C.3   697  INH697      0.1110
      4  C1        14.0930   47.7000   40.4470 C.2   697  INH697      0.1390
      5  O1        13.4480   47.5430   39.2800 O.2   697  INH697     -0.6500
      6  O2        13.7420   48.6550   41.1830 O.3   697  INH697     -0.7760
      7  H         12.8360   48.7750   41.3950 H     697  INH697      0.1670
      8  C5        16.4750   44.1450   40.7730 C.2   697  INH697      0.1440
      9  O3        17.7470   44.3580   40.4280 O.2   697  INH697     -0.6500
     10  O4        15.8030   43.4990   39.9670 O.3   697  INH697     -0.7760
     11  H         16.2230   43.0410   39.2670 H     697  INH697      0.1670
     12  C6        16.9940   45.4690   42.8700 C.3   697  INH697      0.1400
     13  P1        17.7990   44.5150   44.1380 P.3   697  INH697      0.2360
     14  O7        18.9560   45.6330   44.8550 O.2   697  INH697     -0.6530
     15  O6        18.5210   43.3150   43.4730 O.3   697  INH697     -0.3290
     16  H         18.8810   42.7340   44.1600 H     697  INH697      0.2200
     17  O5        16.8090   43.9390   45.4140 O.3   697  INH697     -0.3290
     18  H         16.7550   44.6130   46.1100 H     697  INH697      0.2200
@<TRIPOS>BOND
     1    11    10    1
     2     5     4    2
     3    10     8    1
     4     9     8    2
     5     4     3    1
     6     4     6    1
     7     8     1    1
     8     3     2    1
     9     6     7    1
    10     2     1    1
    11     1    12    1
    12    12    13    1
    13    15    13    1
    14    15    16    1
    15    13    14    2
    16    13    17    1
    17    17    18    1
