@<TRIPOS>MOLECULE
./ligand/3ekr_lig.pdb
 41 43 0 0 0
SMALL
GASTEIGER

@<TRIPOS>ATOM
      1  N1        17.1140   -3.7120   51.0650 N.am  220  INH220     -0.2903
      2  C1        15.2170    0.8970   49.6930 C.ar  220  INH220      0.1204
      3  C2        16.5820    0.6770   49.3700 C.ar  220  INH220      0.0221
      4  C3        17.1030   -0.6460   49.4040 C.ar  220  INH220      0.1324
      5  C4        16.8290   -3.1190   49.8050 C.2   220  INH220      0.2506
      6  C5        16.9380   -3.1630   52.4490 C.3   220  INH220      0.0518
      7  C6        17.8680   -5.4040   52.5880 C.3   220  INH220     -0.0351
      8  C7        14.4900   -4.0780   52.5680 C.ar  220  INH220     -0.0565
      9  C8        12.7880   -3.0890   54.0340 C.ar  220  INH220     -0.0615
     10  C9        15.0820   -2.1400   54.0060 C.ar  220  INH220     -0.0455
     11  C10       13.1620   -4.0530   53.0730 C.ar  220  INH220     -0.0614
     12  C11       14.8930   -1.5000   50.0740 C.ar  220  INH220     -0.0426
     13  C12       13.7350   -2.1430   54.4960 C.ar  220  INH220     -0.0585
     14  C13       14.3690   -0.1820   50.0430 C.ar  220  INH220     -0.0192
     15  C14       16.2670   -1.7390   49.7580 C.ar  220  INH220      0.0785
     16  C15       15.4870   -3.1320   53.0130 C.ar  220  INH220     -0.0241
     17  C16       17.8840   -4.0440   53.2820 C.3   220  INH220     -0.0287
     18  C17       17.6810   -5.0660   51.1140 C.3   220  INH220      0.0157
     19  C18       16.0250   -1.0880   54.5570 C.3   220  INH220     -0.0394
     20  O1        17.0280   -3.6660   48.7170 O.2   220  INH220     -0.2698
     21  O2        14.6890    2.1500   49.6810 O.3   220  INH220     -0.5066
     22  O3        18.4180   -0.8030   49.0880 O.3   220  INH220     -0.5059
     23  H1        17.2210    1.5100   49.1000 H     220  INH220      0.0691
     24  H2        17.3020   -2.1250   52.4620 H     220  INH220      0.0550
     25  H3        17.0350   -6.0210   52.9560 H     220  INH220      0.0281
     26  H4        18.8170   -5.9360   52.7490 H     220  INH220      0.0281
     27  H5        14.7620   -4.8250   51.8310 H     220  INH220      0.0621
     28  H6        11.7750   -3.0730   54.4190 H     220  INH220      0.0618
     29  H7        12.4350   -4.7750   52.7200 H     220  INH220      0.0618
     30  H8        14.2480   -2.3300   50.3390 H     220  INH220      0.0627
     31  H9        13.4360   -1.4080   55.2340 H     220  INH220      0.0620
     32  H10       13.3280   -0.0020   50.2850 H     220  INH220      0.0654
     33  H11       17.5200   -4.1330   54.3160 H     220  INH220      0.0287
     34  H12       18.9010   -3.6240   53.2860 H     220  INH220      0.0287
     35  H13       18.6490   -5.0920   50.5930 H     220  INH220      0.0465
     36  H14       16.9920   -5.7840   50.6440 H     220  INH220      0.0465
     37  H15       17.0160   -1.2060   54.0940 H     220  INH220      0.0278
     38  H16       16.1120   -1.2090   55.6470 H     220  INH220      0.0278
     39  H17       15.6310   -0.0870   54.3290 H     220  INH220      0.0278
     40  H18       15.3600    2.7740   49.4310 H     220  INH220      0.2921
     41  H19       18.7980    0.0430   48.8820 H     220  INH220      0.2922
@<TRIPOS>BOND
     1     1     6    1
     2     1    18    1
     3     1     5   am
     4     2     3   ar
     5     2    21    1
     6     2    14   ar
     7     3     4   ar
     8     3    23    1
     9     4    15   ar
    10     4    22    1
    11     5    20    2
    12     5    15    1
    13     6    16    1
    14     6    24    1
    15     6    17    1
    16     7    18    1
    17     7    26    1
    18     7    25    1
    19     7    17    1
    20     8    27    1
    21     8    16   ar
    22     8    11   ar
    23     9    11   ar
    24     9    28    1
    25     9    13   ar
    26    10    13   ar
    27    10    19    1
    28    10    16   ar
    29    11    29    1
    30    12    15   ar
    31    12    14   ar
    32    12    30    1
    33    13    31    1
    34    14    32    1
    35    17    34    1
    36    17    33    1
    37    18    36    1
    38    18    35    1
    39    19    39    1
    40    19    38    1
    41    19    37    1
    42    21    40    1
    43    22    41    1
