@<TRIPOS>MOLECULE
/tmp/ewbell/vina_3ekr_3ekr_lig/vina/vina3.pdbqt
 24 26 0 0 0
SMALL
GASTEIGER

@<TRIPOS>ATOM
      1  N1        15.3070   -1.4660   55.1160 N.am  220  INH220     -0.3390
      2  C4        14.3390   -0.8130   55.9270 C.2   220  INH220      0.2570
      3  C5        15.1230   -2.4770   54.0240 C.3   220  INH220      0.1210
      4  C6        17.4940   -2.0240   54.3070 C.3   220  INH220      0.0220
      5  C16       16.5120   -3.1330   53.9380 C.3   220  INH220      0.0320
      6  C17       16.7320   -1.1740   55.3160 C.3   220  INH220      0.1270
      7  O1        14.6070    0.0190   56.7970 O.2   220  INH220     -0.2670
      8  C15       14.6200   -1.9430   52.6510 C.ar  220  INH220     -0.0290
      9  C7        15.2590   -0.8220   52.0030 C.ar  220  INH220      0.0100
     10  C10       14.8020   -0.3250   50.7530 C.ar  220  INH220      0.0010
     11  C8        13.6990   -0.9280   50.1110 C.ar  220  INH220      0.0010
     12  C12       13.0440   -2.0300   50.7130 C.ar  220  INH220      0.0070
     13  C9        13.4790   -2.5550   51.9740 C.ar  220  INH220     -0.0540
     14  C18       12.7140   -3.7340   52.5420 C.3   220  INH220      0.0490
     15  C14       12.8960   -1.1460   55.7530 C.ar  220  INH220      0.0650
     16  C3        11.9620   -0.1150   55.4670 C.ar  220  INH220      0.0840
     17  C2        10.5810   -0.4180   55.3130 C.ar  220  INH220      0.0740
     18  C1        10.1430   -1.7630   55.4470 C.ar  220  INH220      0.0680
     19  C13       11.0620   -2.8030   55.7270 C.ar  220  INH220      0.0370
     20  C11       12.4390   -2.4960   55.8770 C.ar  220  INH220      0.0220
     21  O3        12.3290    1.1880   55.3310 O.3   220  INH220     -0.3600
     22  H19       12.2450    1.4490   54.4210 H     220  INH220      0.2170
     23  O2         8.8280   -2.0860   55.3170 O.3   220  INH220     -0.3610
     24  H18        8.7300   -3.0300   55.3510 H     220  INH220      0.2170
@<TRIPOS>BOND
     1    11    12   ar
     2    11    10   ar
     3    12    13   ar
     4    10     9   ar
     5    13    14    1
     6    13     8   ar
     7     9     8   ar
     8     8     3    1
     9     5     3    1
    10     5     4    1
    11     3     1    1
    12     4     6    1
    13    22    21    1
    14     1     6    1
    15     1     2   am
    16    17    18   ar
    17    17    16   ar
    18    23    24    1
    19    23    18    1
    20    21    16    1
    21    18    19   ar
    22    16    15   ar
    23    19    20   ar
    24    15    20   ar
    25    15     2    1
    26     2     7    2
