@<TRIPOS>MOLECULE
/tmp/ewbell/vina_3ekr_3ekr_lig/vina/vina1.pdbqt
 24 26 0 0 0
SMALL
GASTEIGER

@<TRIPOS>ATOM
      1  N1        16.9950   -3.4800   51.2150 N.am  220  INH220     -0.3390
      2  C4        16.6180   -2.9410   49.9550 C.2   220  INH220      0.2570
      3  C5        16.7840   -2.9360   52.5970 C.3   220  INH220      0.1210
      4  C6        17.9700   -5.0520   52.7410 C.3   220  INH220      0.0220
      5  C16       17.8420   -3.6900   53.4190 C.3   220  INH220      0.0320
      6  C17       17.7160   -4.7580   51.2680 C.3   220  INH220      0.1270
      7  O1        16.8360   -3.4880   48.8710 O.2   220  INH220     -0.2670
      8  C15       15.3510   -3.0640   53.1910 C.ar  220  INH220     -0.0290
      9  C7        14.4280   -4.0670   52.7110 C.ar  220  INH220      0.0100
     10  C10       13.1170   -4.1880   53.2430 C.ar  220  INH220      0.0010
     11  C8        12.6850   -3.3170   54.2670 C.ar  220  INH220      0.0010
     12  C12       13.5580   -2.3200   54.7650 C.ar  220  INH220      0.0070
     13  C9        14.8870   -2.1700   54.2490 C.ar  220  INH220     -0.0540
     14  C18       15.7490   -1.0730   54.8420 C.3   220  INH220      0.0490
     15  C14       15.9280   -1.6210   49.9020 C.ar  220  INH220      0.0650
     16  C3        16.6710   -0.4450   49.6100 C.ar  220  INH220      0.0840
     17  C2        16.0270    0.8220   49.5710 C.ar  220  INH220      0.0740
     18  C1        14.6320    0.9030   49.8270 C.ar  220  INH220      0.0680
     19  C13       13.8770   -0.2590   50.1150 C.ar  220  INH220      0.0370
     20  C11       14.5240   -1.5220   50.1500 C.ar  220  INH220      0.0220
     21  O3        18.0090   -0.4680   49.3600 O.3   220  INH220     -0.3600
     22  H19       18.4860   -0.4680   50.1820 H     220  INH220      0.2170
     23  O2        13.9870    2.1000   49.8080 O.3   220  INH220     -0.3610
     24  H18       13.4150    2.1400   49.0510 H     220  INH220      0.2170
@<TRIPOS>BOND
     1     7     2    2
     2    24    23    1
     3    21    16    1
     4    21    22    1
     5    17    16   ar
     6    17    18   ar
     7    16    15   ar
     8    23    18    1
     9    18    19   ar
    10    15     2    1
    11    15    20   ar
    12     2     1   am
    13    19    20   ar
    14     1     6    1
    15     1     3    1
    16     6     4    1
    17     3     8    1
    18     3     5    1
    19     9     8   ar
    20     9    10   ar
    21     4     5    1
    22     8    13   ar
    23    10    11   ar
    24    13    12   ar
    25    13    14    1
    26    11    12   ar
