@<TRIPOS>MOLECULE
/tmp/ewbell/vina_3ekr_3ekr_lig/vina/vina4.pdbqt
 24 26 0 0 0
SMALL
GASTEIGER

@<TRIPOS>ATOM
      1  N1        16.4960   -3.5240   53.0270 N.am  220  INH220     -0.3390
      2  C4        15.9400   -3.1200   54.2710 C.2   220  INH220      0.2570
      3  C5        15.8990   -3.4960   51.6520 C.3   220  INH220      0.1210
      4  C6        18.1490   -4.4090   51.5310 C.3   220  INH220      0.0220
      5  C16       16.7670   -4.5110   50.8890 C.3   220  INH220      0.0320
      6  C17       17.8560   -4.0780   52.9890 C.3   220  INH220      0.1270
      7  O1        16.5340   -3.1780   55.3510 O.2   220  INH220     -0.2670
      8  C15       15.8280   -2.1100   50.9450 C.ar  220  INH220     -0.0290
      9  C7        17.0260   -1.3730   50.6210 C.ar  220  INH220      0.0100
     10  C10       16.9710   -0.1050   49.9820 C.ar  220  INH220      0.0010
     11  C8        15.7230    0.4650   49.6470 C.ar  220  INH220      0.0010
     12  C12       14.5250   -0.2260   49.9480 C.ar  220  INH220      0.0070
     13  C9        14.5460   -1.5060   50.5930 C.ar  220  INH220     -0.0540
     14  C18       13.2120   -2.1680   50.8780 C.3   220  INH220      0.0490
     15  C14       14.5430   -2.6020   54.3120 C.ar  220  INH220      0.0650
     16  C3        13.4520   -3.5120   54.3630 C.ar  220  INH220      0.0840
     17  C2        12.1140   -3.0310   54.3890 C.ar  220  INH220      0.0740
     18  C1        11.8760   -1.6310   54.3630 C.ar  220  INH220      0.0680
     19  C13       12.9520   -0.7110   54.3170 C.ar  220  INH220      0.0370
     20  C11       14.2850   -1.1960   54.2940 C.ar  220  INH220      0.0220
     21  O3        13.6260   -4.8620   54.3870 O.3   220  INH220     -0.3600
     22  H19       13.5540   -5.2070   53.5050 H     220  INH220      0.2170
     23  O2        10.6100   -1.1370   54.3750 O.3   220  INH220     -0.3610
     24  H18       10.2410   -1.1900   53.5020 H     220  INH220      0.2170
@<TRIPOS>BOND
     1    11    12   ar
     2    11    10   ar
     3    12    13   ar
     4    10     9   ar
     5    13    14    1
     6    13     8   ar
     7     9     8   ar
     8     5     4    1
     9     5     3    1
    10     8     3    1
    11     4     6    1
    12     3     1    1
    13     6     1    1
    14     1     2   am
    15    24    23    1
    16    22    21    1
    17     2    15    1
    18     2     7    2
    19    20    15   ar
    20    20    19   ar
    21    15    16   ar
    22    19    18   ar
    23    16    21    1
    24    16    17   ar
    25    18    23    1
    26    18    17   ar
