@<TRIPOS>MOLECULE
/tmp/ewbell/vina_3ekr_3ekr_lig/vina/vina5.pdbqt
 24 26 0 0 0
SMALL
GASTEIGER

@<TRIPOS>ATOM
      1  N1        14.9680   -1.2900   50.6600 N.am  220  INH220     -0.3390
      2  C4        13.6570   -1.6050   51.1110 C.2   220  INH220      0.2570
      3  C5        16.2480   -1.1700   51.4310 C.3   220  INH220      0.1210
      4  C6        16.6810   -0.7160   49.0830 C.3   220  INH220      0.0220
      5  C16       17.1280   -0.3290   50.4910 C.3   220  INH220      0.0320
      6  C17       15.1950   -1.0160   49.2350 C.3   220  INH220      0.1270
      7  O1        12.6700   -1.6890   50.3760 O.2   220  INH220     -0.2670
      8  C15       16.9310   -2.4980   51.8710 C.ar  220  INH220     -0.0290
      9  C7        17.1590   -3.5700   50.9310 C.ar  220  INH220      0.0100
     10  C10       17.7760   -4.7880   51.3250 C.ar  220  INH220      0.0010
     11  C8        18.1830   -4.9740   52.6640 C.ar  220  INH220      0.0010
     12  C12       17.9770   -3.9480   53.6170 C.ar  220  INH220      0.0070
     13  C9        17.3570   -2.7080   53.2530 C.ar  220  INH220     -0.0540
     14  C18       17.1750   -1.6700   54.3420 C.3   220  INH220      0.0490
     15  C14       13.4210   -1.8380   52.5640 C.ar  220  INH220      0.0650
     16  C3        13.5840   -3.1400   53.1080 C.ar  220  INH220      0.0840
     17  C2        13.3480   -3.3780   54.4900 C.ar  220  INH220      0.0740
     18  C1        12.9490   -2.3000   55.3250 C.ar  220  INH220      0.0680
     19  C13       12.7870   -0.9950   54.7990 C.ar  220  INH220      0.0370
     20  C11       13.0260   -0.7630   53.4200 C.ar  220  INH220      0.0220
     21  O3        13.9620   -4.2070   52.3510 O.3   220  INH220     -0.3600
     22  H19       14.5870   -3.9230   51.6930 H     220  INH220      0.2170
     23  O2        12.7040   -2.4940   56.6480 O.3   220  INH220     -0.3610
     24  H18       12.8200   -3.4130   56.8600 H     220  INH220      0.2170
@<TRIPOS>BOND
     1     4     6    1
     2     4     5    1
     3     6     1    1
     4     7     2    2
     5     5     3    1
     6     1     2   am
     7     1     3    1
     8     9    10   ar
     9     9     8   ar
    10     2    15    1
    11    10    11   ar
    12     3     8    1
    13    22    21    1
    14     8    13   ar
    15    21    16    1
    16    15    16   ar
    17    15    20   ar
    18    11    12   ar
    19    16    17   ar
    20    13    12   ar
    21    13    14    1
    22    20    19   ar
    23    17    18   ar
    24    19    18   ar
    25    18    23    1
    26    23    24    1
