@<TRIPOS>MOLECULE
/tmp/ewbell/vina_3ekr_3ekr_lig/vina/vina2.pdbqt
 24 26 0 0 0
SMALL
GASTEIGER

@<TRIPOS>ATOM
      1  N1        15.2550   -1.0200   50.3520 N.am  220  INH220     -0.3390
      2  C4        16.6210   -1.2740   50.6550 C.2   220  INH220      0.2570
      3  C5        14.0410   -1.8640   50.6010 C.3   220  INH220      0.1210
      4  C6        13.3720    0.1970   49.5010 C.3   220  INH220      0.0220
      5  C16       13.0200   -1.2850   49.6080 C.3   220  INH220      0.0320
      6  C17       14.8850    0.2330   49.6820 C.3   220  INH220      0.1270
      7  O1        17.5440   -0.4930   50.4110 O.2   220  INH220     -0.2670
      8  C15       13.5050   -1.9090   52.0630 C.ar  220  INH220     -0.0290
      9  C7        13.0220   -0.7170   52.7200 C.ar  220  INH220      0.0100
     10  C10       12.5360   -0.7470   54.0550 C.ar  220  INH220      0.0010
     11  C8        12.5170   -1.9620   54.7730 C.ar  220  INH220      0.0010
     12  C12       12.9830   -3.1530   54.1660 C.ar  220  INH220      0.0070
     13  C9        13.4800   -3.1570   52.8220 C.ar  220  INH220     -0.0540
     14  C18       13.9600   -4.4790   52.2570 C.3   220  INH220      0.0490
     15  C14       16.9990   -2.5670   51.2930 C.ar  220  INH220      0.0650
     16  C3        17.1980   -3.7210   50.4900 C.ar  220  INH220      0.0840
     17  C2        17.5460   -4.9630   51.0880 C.ar  220  INH220      0.0740
     18  C1        17.6920   -5.0410   52.4990 C.ar  220  INH220      0.0680
     19  C13       17.5020   -3.8980   53.3130 C.ar  220  INH220      0.0370
     20  C11       17.1580   -2.6610   52.7110 C.ar  220  INH220      0.0220
     21  O3        17.0680   -3.7010   49.1350 O.3   220  INH220     -0.3600
     22  H19       17.9110   -3.5130   48.7370 H     220  INH220      0.2170
     23  O2        18.0120   -6.2150   53.1050 O.3   220  INH220     -0.3610
     24  H18       18.0570   -6.0850   54.0450 H     220  INH220      0.2170
@<TRIPOS>BOND
     1    22    21    1
     2    21    16    1
     3     4     5    1
     4     4     6    1
     5     5     3    1
     6     6     1    1
     7     1     3    1
     8     1     2   am
     9     7     2    2
    10    16    17   ar
    11    16    15   ar
    12     3     8    1
    13     2    15    1
    14    17    18   ar
    15    15    20   ar
    16     8     9   ar
    17     8    13   ar
    18    14    13    1
    19    18    23    1
    20    18    19   ar
    21    20    19   ar
    22     9    10   ar
    23    13    12   ar
    24    23    24    1
    25    10    11   ar
    26    12    11   ar
