@<TRIPOS>MOLECULE
./ligand/2qi3_lig.pdb
 74 76 0 0 0
SMALL
GASTEIGER

@<TRIPOS>ATOM
      1  O1        21.4330   30.0840   11.9560 O.2   203  INH203     -0.2730
      2  C1        21.5390   28.9180   12.2790 C.2   203  INH203      0.2422
      3  C2        22.6030   28.1080   11.5800 C.3   203  INH203      0.1331
      4  C3        22.2530   28.0620   10.0820 C.3   203  INH203     -0.0121
      5  C4        20.8680   27.4650    9.8500 C.3   203  INH203     -0.0599
      6  C5        23.3090   27.3000    9.2750 C.3   203  INH203     -0.0599
      7  O2        22.6790   26.7540   12.0370 O.3   203  INH203     -0.3823
      8  N1        20.7450   28.3470   13.2010 N.am  203  INH203     -0.3075
      9  C6        19.6600   29.0970   13.8510 C.3   203  INH203      0.0543
     10  C7        18.4030   28.2190   13.7830 C.3   203  INH203     -0.0067
     11  C8        17.9970   27.9210   12.3590 C.ar  203  INH203     -0.0455
     12  C9        17.5360   28.9420   11.5340 C.ar  203  INH203     -0.0585
     13  C10       17.1650   28.6490   10.2200 C.ar  203  INH203     -0.0615
     14  C11       17.2310   27.3500    9.7110 C.ar  203  INH203     -0.0617
     15  C12       17.7000   26.3370   10.5420 C.ar  203  INH203     -0.0615
     16  C13       18.0760   26.6120   11.8610 C.ar  203  INH203     -0.0585
     17  C14       20.0680   29.4470   15.2870 C.3   203  INH203      0.0881
     18  O3        19.9750   28.3220   16.1610 O.3   203  INH203     -0.3886
     19  C15       19.1910   30.5480   15.8790 C.3   203  INH203      0.0483
     20  N2        19.4240   31.8010   15.1370 N.3   203  INH203     -0.1738
     21  C16       20.1500   32.7950   15.9520 C.3   203  INH203      0.0232
     22  C17       21.6520   32.4860   15.9480 C.3   203  INH203     -0.0297
     23  C18       22.2280   32.6120   14.5310 C.3   203  INH203     -0.0612
     24  C19       22.4080   33.3440   16.9670 C.3   203  INH203     -0.0521
     25  C20       22.0400   34.8110   16.9250 C.3   203  INH203     -0.0650
     26  S1        18.0790   32.3910   14.4330 S.O2  203  INH203      0.0610
     27  O4        17.3170   31.2870   13.9400 O.2   203  INH203     -0.1528
     28  O5        18.5480   33.2510   13.3750 O.2   203  INH203     -0.1528
     29  C21       17.1760   33.2420   15.5010 C.ar  203  INH203      0.1067
     30  C22       17.3210   34.6360   15.7500 C.ar  203  INH203     -0.0195
     31  C23       16.5110   35.2980   16.7140 C.ar  203  INH203      0.0408
     32  S2        16.6020   36.9690   17.0940 S.2   203  INH203     -0.0754
     33  C24       15.3370   36.6190   18.2380 C.ar  203  INH203      0.0659
     34  N3        14.9230   35.3360   18.3060 N.ar  203  INH203     -0.2474
     35  C25       15.5740   34.5430   17.4320 C.ar  203  INH203      0.0783
     36  C26       15.4390   33.1880   17.1910 C.ar  203  INH203     -0.0334
     37  C27       16.2240   32.5430   16.2450 C.ar  203  INH203     -0.0333
     38  H1        23.5790   28.5940   11.7290 H     203  INH203      0.0693
     39  H2        22.2360   29.0990    9.7150 H     203  INH203      0.0325
     40  H3        20.6520   27.4480    8.7710 H     203  INH203      0.0233
     41  H4        20.1140   28.0780   10.3650 H     203  INH203      0.0233
     42  H5        20.8400   26.4390   10.2460 H     203  INH203      0.0233
     43  H6        24.2990   27.7440    9.4550 H     203  INH203      0.0233
     44  H7        23.0680   27.3630    8.2040 H     203  INH203      0.0233
     45  H8        23.3180   26.2450    9.5870 H     203  INH203      0.0233
     46  H9        22.8940   26.7440   12.9620 H     203  INH203      0.2104
     47  H10       20.8960   27.3900   13.4510 H     203  INH203      0.1491
     48  H11       19.4750   30.0320   13.3020 H     203  INH203      0.0527
     49  H12       17.5760   28.7430   14.2860 H     203  INH203      0.0332
     50  H13       18.6040   27.2700   14.3010 H     203  INH203      0.0332
     51  H14       17.4650   29.9570   11.9080 H     203  INH203      0.0620
     52  H15       16.8170   29.4500    9.5780 H     203  INH203      0.0618
     53  H16       16.9240   27.1360    8.6930 H     203  INH203      0.0618
     54  H17       17.7750   25.3240   10.1630 H     203  INH203      0.0618
     55  H18       18.4300   25.8110   12.5000 H     203  INH203      0.0620
     56  H19       21.1110   29.7960   15.2660 H     203  INH203      0.0625
     57  H20       19.0760   28.0130   16.1850 H     203  INH203      0.2099
     58  H21       18.1320   30.2610   15.7950 H     203  INH203      0.0470
     59  H22       19.4480   30.6940   16.9380 H     203  INH203      0.0470
     60  H23       19.7750   32.7620   16.9860 H     203  INH203      0.0446
     61  H24       19.9840   33.7990   15.5340 H     203  INH203      0.0446
     62  H25       21.7730   31.4370   16.2570 H     203  INH203      0.0311
     63  H26       23.3040   32.3870   14.5510 H     203  INH203      0.0233
     64  H27       22.0750   33.6370   14.1630 H     203  INH203      0.0233
     65  H28       21.7170   31.9030   13.8630 H     203  INH203      0.0233
     66  H29       23.4860   33.2510   16.7670 H     203  INH203      0.0266
     67  H30       22.1880   32.9600   17.9740 H     203  INH203      0.0266
     68  H31       22.6220   35.3570   17.6820 H     203  INH203      0.0230
     69  H32       20.9660   34.9260   17.1350 H     203  INH203      0.0230
     70  H33       22.2640   35.2170   15.9270 H     203  INH203      0.0230
     71  H34       18.0610   35.2020   15.1960 H     203  INH203      0.0649
     72  H35       14.9020   37.3950   18.8660 H     203  INH203      0.0907
     73  H36       14.7060   32.6190   17.7510 H     203  INH203      0.0640
     74  H37       16.0960   31.4790   16.0810 H     203  INH203      0.0638
@<TRIPOS>BOND
     1     1     2    2
     2     2     8   am
     3     2     3    1
     4     3    38    1
     5     3     7    1
     6     3     4    1
     7     4    39    1
     8     4     6    1
     9     4     5    1
    10     5    42    1
    11     5    41    1
    12     5    40    1
    13     6    45    1
    14     6    44    1
    15     6    43    1
    16     7    46    1
    17     8    47    1
    18     8     9    1
    19     9    48    1
    20     9    17    1
    21     9    10    1
    22    10    50    1
    23    10    49    1
    24    10    11    1
    25    11    16   ar
    26    11    12   ar
    27    12    51    1
    28    12    13   ar
    29    13    52    1
    30    13    14   ar
    31    14    53    1
    32    14    15   ar
    33    15    54    1
    34    15    16   ar
    35    16    55    1
    36    17    56    1
    37    17    19    1
    38    17    18    1
    39    18    57    1
    40    19    59    1
    41    19    58    1
    42    19    20    1
    43    20    26    1
    44    20    21    1
    45    21    61    1
    46    21    60    1
    47    21    22    1
    48    22    62    1
    49    22    24    1
    50    22    23    1
    51    23    65    1
    52    23    64    1
    53    23    63    1
    54    24    67    1
    55    24    66    1
    56    24    25    1
    57    25    70    1
    58    25    69    1
    59    25    68    1
    60    26    29    1
    61    26    28    2
    62    26    27    2
    63    29    37   ar
    64    29    30   ar
    65    30    71    1
    66    30    31   ar
    67    31    35   ar
    68    31    32   ar
    69    32    33   ar
    70    33    72    1
    71    33    34   ar
    72    34    35   ar
    73    35    36   ar
    74    36    73    1
    75    36    37   ar
    76    37    74    1
