@<TRIPOS>MOLECULE
/tmp/ewbell/vina_2qi3_2qi3_lig/vina/vina5.pdbqt
 41 43 0 0 0
SMALL
GASTEIGER

@<TRIPOS>ATOM
      1  C14       19.9820   30.1640   14.1900 C.3   203  INH203      0.1550
      2  C6        19.7340   31.6770   14.1410 C.3   203  INH203      0.1180
      3  N1        20.8730   32.3400   13.4890 N.am  203  INH203     -0.3510
      4  C1        21.7950   33.0130   14.1980 C.2   203  INH203      0.2470
      5  O1        22.7490   33.5570   13.6820 O.2   203  INH203     -0.2710
      6  H10       20.9640   32.2880   12.4930 H     203  INH203      0.1630
      7  C2        21.6860   33.1020   15.7010 C.3   203  INH203      0.2130
      8  O2        22.3540   32.0380   16.3850 O.3   203  INH203     -0.3860
      9  H9        21.7090   31.4420   16.7480 H     203  INH203      0.2100
     10  C3        22.3540   34.4170   16.1450 C.3   203  INH203      0.0150
     11  C5        21.3640   35.5850   16.1470 C.3   203  INH203      0.0120
     12  C4        23.0160   34.2720   17.5130 C.3   203  INH203      0.0120
     13  C7        18.4780   32.0510   13.3430 C.3   203  INH203      0.0660
     14  C8        17.4380   32.7230   14.2070 C.ar  203  INH203     -0.0560
     15  C13       16.6180   31.9590   15.0510 C.ar  203  INH203      0.0070
     16  C12       15.6550   32.5830   15.8510 C.ar  203  INH203      0.0010
     17  C11       15.5040   33.9670   15.8330 C.ar  203  INH203      0.0000
     18  C10       16.3230   34.7120   14.9820 C.ar  203  INH203      0.0010
     19  C9        17.2900   34.1060   14.1770 C.ar  203  INH203      0.0070
     20  C15       20.7280   29.6660   12.9540 C.3   203  INH203      0.1410
     21  N2        20.2160   28.3320   12.5890 N.3   203  INH203     -0.2040
     22  S1        18.8440   28.3870   11.7130 S.O2  203  INH203      0.2430
     23  O5        17.7850   28.5650   12.6750 O.2   203  INH203     -0.2060
     24  O4        18.9430   29.4850   10.8030 O.2   203  INH203     -0.2060
     25  C21       18.6230   27.0000   10.8710 C.ar  203  INH203      0.0760
     26  C27       18.0490   25.9200   11.5420 C.ar  203  INH203      0.0270
     27  C26       17.8030   24.7200   10.8900 C.ar  203  INH203      0.0320
     28  C25       18.1150   24.5530    9.5530 C.ar  203  INH203      0.0490
     29  C23       18.6960   25.6020    8.8270 C.ar  203  INH203      0.0340
     30  N3        17.9430   23.4840    8.7510 N.pl3 203  INH203     -0.3590
     31  C22       18.9420   26.8340    9.4940 C.ar  203  INH203      0.0460
     32  S2        19.0380   25.2920    7.1740 S.3   203  INH203     -0.0830
     33  C24       18.3840   23.7100    7.4950 C.3   203  INH203      0.1390
     34  H3        17.5260   22.6050    9.0560 H     203  INH203      0.1660
     35  C16       21.2680   27.4870   11.9880 C.3   203  INH203      0.1120
     36  C17       22.3800   28.3660   11.4020 C.3   203  INH203     -0.0050
     37  C18       23.7590   27.8700   11.8570 C.3   203  INH203      0.0110
     38  C19       22.2700   28.4760    9.8780 C.3   203  INH203      0.0010
     39  C20       23.6030   28.4340    9.1630 C.3   203  INH203      0.0050
     40  O3        20.7560   29.7830   15.3280 O.3   203  INH203     -0.3920
     41  H20       20.2360   29.8960   16.1170 H     203  INH203      0.2100
@<TRIPOS>BOND
     1    32    33    1
     2    32    29    1
     3    33    30    1
     4    30    34    1
     5    30    28    1
     6    29    31   ar
     7    29    28   ar
     8    39    38    1
     9    31    25   ar
    10    28    27   ar
    11    38    36    1
    12    24    22    2
    13    25    26   ar
    14    25    22    1
    15    27    26   ar
    16    36    37    1
    17    36    35    1
    18    22    21    1
    19    22    23    2
    20    35    21    1
    21     6     3    1
    22    21    20    1
    23    20     1    1
    24    13     2    1
    25    13    14    1
    26     3     2    1
    27     3     4   am
    28     5     4    2
    29     2     1    1
    30    19    14   ar
    31    19    18   ar
    32     1    40    1
    33     4     7    1
    34    14    15   ar
    35    18    17   ar
    36    15    16   ar
    37    40    41    1
    38     7    10    1
    39     7     8    1
    40    17    16   ar
    41    10    11    1
    42    10    12    1
    43     8     9    1
