@<TRIPOS>MOLECULE
/tmp/ewbell/vina_2qi3_2qi3_lig/vina/vina3.pdbqt
 41 43 0 0 0
SMALL
GASTEIGER

@<TRIPOS>ATOM
      1  C14       18.8630   29.4440   13.5160 C.3   203  INH203      0.1550
      2  C6        19.1660   30.8750   13.9760 C.3   203  INH203      0.1180
      3  N1        20.5840   31.1780   13.7350 N.am  203  INH203     -0.3510
      4  C1        21.3570   31.7310   14.6870 C.2   203  INH203      0.2470
      5  O1        22.5330   31.9780   14.5140 O.2   203  INH203     -0.2710
      6  H10       20.9850   30.9680   12.8420 H     203  INH203      0.1630
      7  C2        20.7810   32.0540   16.0440 C.3   203  INH203      0.2130
      8  O2        21.4320   31.3660   17.1170 O.3   203  INH203     -0.3860
      9  H9        21.5730   30.4590   16.8710 H     203  INH203      0.2100
     10  C3        20.9710   33.5620   16.2910 C.3   203  INH203      0.0150
     11  C5        19.6560   34.2440   16.6800 C.3   203  INH203      0.0120
     12  C4        22.0440   33.8240   17.3450 C.3   203  INH203      0.0120
     13  C7        18.3470   31.9320   13.2230 C.3   203  INH203      0.0660
     14  C8        17.4020   32.6740   14.1380 C.ar  203  INH203     -0.0560
     15  C13       17.2550   34.0650   14.0270 C.ar  203  INH203      0.0070
     16  C12       16.3800   34.7510   14.8750 C.ar  203  INH203      0.0010
     17  C11       15.6340   34.0660   15.8310 C.ar  203  INH203      0.0000
     18  C10       15.7980   32.6830   15.9340 C.ar  203  INH203      0.0010
     19  C9        16.6660   31.9820   15.0950 C.ar  203  INH203      0.0070
     20  C15       20.1200   28.5780   13.4740 C.3   203  INH203      0.1410
     21  N2        20.4980   28.3460   12.0680 N.3   203  INH203     -0.2040
     22  S1        22.0160   28.8250   11.7220 S.O2  203  INH203      0.2430
     23  O5        21.8670   30.0070   10.9100 O.2   203  INH203     -0.2060
     24  O4        22.6870   29.0930   12.9550 O.2   203  INH203     -0.2060
     25  C21       22.8300   27.6650   10.9010 C.ar  203  INH203      0.0760
     26  C27       23.7230   26.8700   11.6190 C.ar  203  INH203      0.0270
     27  C26       24.4290   25.8470   11.0000 C.ar  203  INH203      0.0320
     28  C25       24.2700   25.5790    9.6520 C.ar  203  INH203      0.0490
     29  C23       23.3890   26.3470    8.8790 C.ar  203  INH203      0.0340
     30  N3        24.8470   24.6350    8.8840 N.pl3 203  INH203     -0.3590
     31  C22       22.6600   27.3900    9.5140 C.ar  203  INH203      0.0460
     32  S2        23.2620   25.9280    7.2190 S.3   203  INH203     -0.0830
     33  C24       24.4350   24.6980    7.6000 C.3   203  INH203      0.1390
     34  H3        25.5180   23.9500    9.2310 H     203  INH203      0.1660
     35  C16       20.2020   26.9630   11.6410 C.3   203  INH203      0.1120
     36  C17       18.9650   26.9450   10.7350 C.3   203  INH203     -0.0050
     37  C18       17.7280   26.4810   11.5160 C.3   203  INH203      0.0110
     38  C19       18.7500   28.2940   10.0440 C.3   203  INH203      0.0010
     39  C20       17.3480   28.8420   10.1930 C.3   203  INH203      0.0050
     40  O3        17.9310   28.7900   14.3770 O.3   203  INH203     -0.3920
     41  H20       17.4890   29.4360   14.9160 H     203  INH203      0.2100
@<TRIPOS>BOND
     1    32    33    1
     2    32    29    1
     3    33    30    1
     4    29    31   ar
     5    29    28   ar
     6    30    34    1
     7    30    28    1
     8    31    25   ar
     9    28    27   ar
    10    38    39    1
    11    38    36    1
    12    36    37    1
    13    36    35    1
    14    25    26   ar
    15    25    22    1
    16    23    22    2
    17    27    26   ar
    18    35    21    1
    19    22    21    1
    20    22    24    2
    21    21    20    1
    22     6     3    1
    23    13     2    1
    24    13    14    1
    25    20     1    1
    26     1     2    1
    27     1    40    1
    28     3     2    1
    29     3     4   am
    30    15    14   ar
    31    15    16   ar
    32    14    19   ar
    33    40    41    1
    34     5     4    2
    35     4     7    1
    36    16    17   ar
    37    19    18   ar
    38    17    18   ar
    39     7    10    1
    40     7     8    1
    41    10    11    1
    42    10    12    1
    43     9     8    1
