@<TRIPOS>MOLECULE
/tmp/ewbell/vina_2qi3_2qi3_lig/vina/vina4.pdbqt
 41 43 0 0 0
SMALL
GASTEIGER

@<TRIPOS>ATOM
      1  C14       21.2710   28.7910   12.3490 C.3   203  INH203      0.1550
      2  C6        21.7660   27.7580   11.3300 C.3   203  INH203      0.1180
      3  N1        23.2280   27.6350   11.4260 N.am  203  INH203     -0.3510
      4  C1        23.9860   27.3960   10.3420 C.2   203  INH203      0.2470
      5  O1        25.1960   27.3040   10.3960 O.2   203  INH203     -0.2710
      6  H10       23.6690   27.7330   12.3190 H     203  INH203      0.1630
      7  C2        23.3490   27.2500    8.9820 C.3   203  INH203      0.2130
      8  O2        23.6720   28.3160    8.0840 O.3   203  INH203     -0.3860
      9  H9        24.6130   28.3470    7.9560 H     203  INH203      0.2100
     10  C3        23.8780   25.9490    8.3500 C.3   203  INH203      0.0150
     11  C5        23.4340   24.7140    9.1400 C.3   203  INH203      0.0120
     12  C4        23.4600   25.8290    6.8870 C.3   203  INH203      0.0120
     13  C7        21.1810   26.3580   11.5630 C.3   203  INH203      0.0660
     14  C8        19.9930   26.0860   10.6720 C.ar  203  INH203     -0.0560
     15  C13       19.7540   26.8880    9.5460 C.ar  203  INH203      0.0070
     16  C12       18.6530   26.6350    8.7220 C.ar  203  INH203      0.0010
     17  C11       17.7880   25.5790    8.9960 C.ar  203  INH203      0.0000
     18  C10       18.0360   24.7940   10.1250 C.ar  203  INH203      0.0010
     19  C9        19.1300   25.0330   10.9580 C.ar  203  INH203      0.0070
     20  C15       20.1130   29.6240   11.8030 C.3   203  INH203      0.1410
     21  N2        19.4520   30.3200   12.9220 N.3   203  INH203     -0.2040
     22  S1        19.5790   31.9410   12.8360 S.O2  203  INH203      0.2430
     23  O5        19.9940   32.2200   11.4840 O.2   203  INH203     -0.2060
     24  O4        18.3000   32.5020   13.1390 O.2   203  INH203     -0.2060
     25  C21       20.6870   32.5060   13.9020 C.ar  203  INH203      0.0760
     26  C27       22.0330   32.2680   13.6220 C.ar  203  INH203      0.0270
     27  C26       23.0330   32.7400   14.4620 C.ar  203  INH203      0.0320
     28  C25       22.7310   33.4620   15.6020 C.ar  203  INH203      0.0490
     29  C23       21.3960   33.7290   15.9360 C.ar  203  INH203      0.0340
     30  N3        23.5490   34.0080   16.5230 N.pl3 203  INH203     -0.3590
     31  C22       20.3720   33.2530   15.0720 C.ar  203  INH203      0.0460
     32  S2        21.1320   34.6390   17.3670 S.3   203  INH203     -0.0830
     33  C24       22.8680   34.6380   17.5030 C.3   203  INH203      0.1390
     34  H3        24.5670   33.9520   16.4830 H     203  INH203      0.1660
     35  C16       18.0680   29.8450   13.1220 C.3   203  INH203      0.1120
     36  C17       17.7120   28.7950   12.0620 C.3   203  INH203     -0.0050
     37  C18       17.2180   27.5020   12.7240 C.3   203  INH203      0.0110
     38  C19       16.7180   29.3440   11.0340 C.3   203  INH203      0.0010
     39  C20       15.7500   28.3090   10.5050 C.3   203  INH203      0.0050
     40  O3        20.8130   28.1780   13.5550 O.3   203  INH203     -0.3920
     41  H20       21.5610   27.8760   14.0590 H     203  INH203      0.2100
@<TRIPOS>BOND
     1    12    10    1
     2     9     8    1
     3     8     7    1
     4    10     7    1
     5    10    11    1
     6    16    17   ar
     7    16    15   ar
     8     7     4    1
     9    17    18   ar
    10    15    14   ar
    11    18    19   ar
    12     4     5    2
    13     4     3   am
    14    39    38    1
    15    14    19   ar
    16    14    13    1
    17    38    36    1
    18     2     3    1
    19     2    13    1
    20     2     1    1
    21     3     6    1
    22    23    22    2
    23    20     1    1
    24    20    21    1
    25    36    37    1
    26    36    35    1
    27     1    40    1
    28    22    21    1
    29    22    24    2
    30    22    25    1
    31    21    35    1
    32    40    41    1
    33    26    25   ar
    34    26    27   ar
    35    25    31   ar
    36    27    28   ar
    37    31    29   ar
    38    28    29   ar
    39    28    30    1
    40    29    32    1
    41    34    30    1
    42    30    33    1
    43    32    33    1
