@<TRIPOS>MOLECULE
/tmp/ewbell/vina_2qi3_2qi3_lig/vina/vina1.pdbqt
 41 43 0 0 0
SMALL
GASTEIGER

@<TRIPOS>ATOM
      1  C14       19.6820   29.7800   15.1880 C.3   203  INH203      0.1550
      2  C6        19.8600   31.2420   14.7610 C.3   203  INH203      0.1180
      3  N1        21.2180   31.4370   14.2320 N.am  203  INH203     -0.3510
      4  C1        22.1430   32.1360   14.9120 C.2   203  INH203      0.2470
      5  O1        23.2740   32.2990   14.5000 O.2   203  INH203     -0.2710
      6  H10       21.4590   31.0400   13.3450 H     203  INH203      0.1630
      7  C2        21.8090   32.7410   16.2540 C.3   203  INH203      0.2130
      8  O2        22.1710   31.9080   17.3600 O.3   203  INH203     -0.3860
      9  H9        21.4740   31.2830   17.5260 H     203  INH203      0.2100
     10  C3        22.6080   34.0500   16.3930 C.3   203  INH203      0.0150
     11  C5        21.8670   35.2360   15.7670 C.3   203  INH203      0.0120
     12  C4        22.9510   34.3420   17.8510 C.3   203  INH203      0.0120
     13  C7        18.8820   31.6660   13.6580 C.3   203  INH203      0.0660
     14  C8        17.7110   32.4460   14.2080 C.ar  203  INH203     -0.0560
     15  C13       16.6910   31.7870   14.9110 C.ar  203  INH203      0.0070
     16  C12       15.6070   32.5100   15.4210 C.ar  203  INH203      0.0010
     17  C11       15.5300   33.8890   15.2490 C.ar  203  INH203      0.0000
     18  C10       16.5490   34.5280   14.5400 C.ar  203  INH203      0.0010
     19  C9        17.6390   33.8230   14.0250 C.ar  203  INH203      0.0070
     20  C15       20.6270   28.8450   14.4350 C.3   203  INH203      0.1410
     21  N2        20.2640   28.8420   13.0060 N.3   203  INH203     -0.2040
     22  S1        21.5540   28.9190   12.0150 S.O2  203  INH203      0.2430
     23  O5        21.3070   30.0500   11.1550 O.2   203  INH203     -0.2060
     24  O4        22.7220   29.0920   12.8210 O.2   203  INH203     -0.2060
     25  C21       21.7020   27.5500   11.1290 C.ar  203  INH203      0.0760
     26  C27       22.7000   26.6470   11.4960 C.ar  203  INH203      0.0270
     27  C26       22.8690   25.4500   10.8120 C.ar  203  INH203      0.0320
     28  C25       22.0560   25.1110    9.7470 C.ar  203  INH203      0.0490
     29  C23       21.0380   25.9800    9.3310 C.ar  203  INH203      0.0340
     30  N3        22.0540   24.0050    8.9760 N.pl3 203  INH203     -0.3590
     31  C22       20.8590   27.2020   10.0360 C.ar  203  INH203      0.0460
     32  S2        20.0820   25.4600    8.0030 S.3   203  INH203     -0.0830
     33  C24       21.0990   24.0470    8.0230 C.3   203  INH203      0.1390
     34  H3        22.7010   23.2260    9.0990 H     203  INH203      0.1660
     35  C16       19.3310   27.7450   12.6790 C.3   203  INH203      0.1120
     36  C17       17.9250   28.3050   12.4310 C.3   203  INH203     -0.0050
     37  C18       17.9280   29.2700   11.2380 C.3   203  INH203      0.0110
     38  C19       16.8900   27.1860   12.2780 C.3   203  INH203      0.0010
     39  C20       17.3270   26.0700   11.3540 C.3   203  INH203      0.0050
     40  O3        19.9300   29.5930   16.5810 O.3   203  INH203     -0.3920
     41  H20       20.5750   28.9040   16.6990 H     203  INH203      0.2100
@<TRIPOS>BOND
     1    32    33    1
     2    32    29    1
     3    33    30    1
     4    30    34    1
     5    30    28    1
     6    29    28   ar
     7    29    31   ar
     8    28    27   ar
     9    31    25   ar
    10    27    26   ar
    11    25    26   ar
    12    25    22    1
    13    23    22    2
    14    37    36    1
    15    39    38    1
    16    22    24    2
    17    22    21    1
    18    38    36    1
    19    36    35    1
    20    35    21    1
    21    21    20    1
    22     6     3    1
    23    13    14    1
    24    13     2    1
    25    19    14   ar
    26    19    18   ar
    27    14    15   ar
    28     3     2    1
    29     3     4   am
    30    20     1    1
    31     5     4    2
    32    18    17   ar
    33     2     1    1
    34    15    16   ar
    35     4     7    1
    36     1    40    1
    37    17    16   ar
    38    11    10    1
    39     7    10    1
    40     7     8    1
    41    10    12    1
    42    40    41    1
    43     8     9    1
