@<TRIPOS>MOLECULE
/tmp/ewbell/vina_2qi3_2qi3_lig/vina/vina2.pdbqt
 41 43 0 0 0
SMALL
GASTEIGER

@<TRIPOS>ATOM
      1  C14       20.8710   29.1590   14.1980 C.3   203  INH203      0.1550
      2  C6        21.1030   28.7290   12.7450 C.3   203  INH203      0.1180
      3  N1        19.9070   29.0340   11.9460 N.am  203  INH203     -0.3510
      4  C1        19.1560   28.0600   11.4030 C.2   203  INH203      0.2470
      5  O1        18.1580   28.2890   10.7510 O.2   203  INH203     -0.2710
      6  H10       19.6450   29.9900   11.8020 H     203  INH203      0.1630
      7  C2        19.5240   26.6110   11.6070 C.3   203  INH203      0.2130
      8  O2        18.3920   25.7580   11.8040 O.3   203  INH203     -0.3860
      9  H9        18.2640   25.6130   12.7340 H     203  INH203      0.2100
     10  C3        20.2430   26.1230   10.3350 C.3   203  INH203      0.0150
     11  C5        21.4040   25.1800   10.6660 C.3   203  INH203      0.0120
     12  C4        19.2710   25.4570    9.3650 C.3   203  INH203      0.0120
     13  C7        22.2820   29.4580   12.0860 C.3   203  INH203      0.0660
     14  C8        23.0800   28.5450   11.1850 C.ar  203  INH203     -0.0560
     15  C13       22.8840   28.5750    9.7960 C.ar  203  INH203      0.0070
     16  C12       23.6240   27.7300    8.9620 C.ar  203  INH203      0.0010
     17  C11       24.5700   26.8580    9.4940 C.ar  203  INH203      0.0000
     18  C10       24.7460   26.8350   10.8790 C.ar  203  INH203      0.0010
     19  C9        24.0180   27.6720   11.7260 C.ar  203  INH203      0.0070
     20  C15       19.4820   29.7590   14.4030 C.3   203  INH203      0.1410
     21  N2        19.5780   31.2290   14.3350 N.3   203  INH203     -0.2040
     22  S1        18.2970   31.9240   13.6090 S.O2  203  INH203      0.2430
     23  O5        18.8490   32.9510   12.7620 O.2   203  INH203     -0.2060
     24  O4        17.6080   30.9160   12.8660 O.2   203  INH203     -0.2060
     25  C21       17.2770   32.5800   14.7100 C.ar  203  INH203      0.0760
     26  C27       16.3700   31.7280   15.3400 C.ar  203  INH203      0.0270
     27  C26       15.4920   32.2020   16.3060 C.ar  203  INH203      0.0320
     28  C25       15.4870   33.5340   16.6780 C.ar  203  INH203      0.0490
     29  C23       16.3740   34.4390   16.0780 C.ar  203  INH203      0.0340
     30  N3        14.7320   34.1750   17.5920 N.pl3 203  INH203     -0.3590
     31  C22       17.2780   33.9510   15.0940 C.ar  203  INH203      0.0460
     32  S2        16.2900   36.0660   16.6170 S.3   203  INH203     -0.0830
     33  C24       15.0230   35.4910   17.6640 C.3   203  INH203      0.1390
     34  H3        14.0220   33.7180   18.1640 H     203  INH203      0.1660
     35  C16       19.9050   31.8190   15.6490 C.3   203  INH203      0.1120
     36  C17       21.0770   32.7980   15.5100 C.3   203  INH203     -0.0050
     37  C18       21.9650   32.7630   16.7620 C.3   203  INH203      0.0110
     38  C19       21.8700   32.5520   14.2230 C.3   203  INH203      0.0010
     39  C20       23.3700   32.5690   14.4150 C.3   203  INH203      0.0050
     40  O3        20.9930   28.0650   15.1070 O.3   203  INH203     -0.3920
     41  H20       20.7130   28.3410   15.9730 H     203  INH203      0.2100
@<TRIPOS>BOND
     1    16    17   ar
     2    16    15   ar
     3    12    10    1
     4    17    18   ar
     5    15    14   ar
     6    10    11    1
     7    10     7    1
     8     5     4    2
     9    18    19   ar
    10    14    19   ar
    11    14    13    1
    12     4     7    1
    13     4     3   am
    14     7     8    1
    15     6     3    1
    16     8     9    1
    17     3     2    1
    18    13     2    1
    19     2     1    1
    20    23    22    2
    21    24    22    2
    22    22    21    1
    23    22    25    1
    24     1    20    1
    25     1    40    1
    26    38    39    1
    27    38    36    1
    28    21    20    1
    29    21    35    1
    30    25    31   ar
    31    25    26   ar
    32    31    29   ar
    33    40    41    1
    34    26    27   ar
    35    36    35    1
    36    36    37    1
    37    29    32    1
    38    29    28   ar
    39    27    28   ar
    40    32    33    1
    41    28    30    1
    42    30    33    1
    43    30    34    1
