@<TRIPOS>MOLECULE
./ligand/1fh9_lig.pdb
 39 40 0 0 0
SMALL
GASTEIGER

@<TRIPOS>ATOM
      1  C1        17.0240   65.6540   38.7720 C.3   315  INH315      0.1880
      2  C2        16.7500   64.6450   39.8890 C.3   315  INH315      0.1341
      3  C3        15.2930   64.1800   39.8510 C.3   315  INH315      0.1137
      4  C4        14.3450   65.3820   39.8410 C.3   315  INH315      0.1069
      5  C5        14.7300   66.3480   38.7160 C.3   315  INH315      0.0792
      6  O1        17.6140   63.5280   39.7340 O.3   315  INH315     -0.3841
      7  O2        15.0250   63.3770   40.9910 O.3   315  INH315     -0.3864
      8  O3        13.0080   64.9330   39.6550 O.3   315  INH315     -0.3869
      9  O4        16.1090   66.7560   38.8640 O.3   315  INH315     -0.3461
     10  C6        20.2840   68.0920   35.6370 C.3   315  INH315      0.1579
     11  C7        20.1080   68.9450   36.9630 C.3   315  INH315      0.1199
     12  C8        19.7760   67.9940   38.1890 C.3   315  INH315      0.1115
     13  C9        18.7680   66.9010   37.7820 C.3   315  INH315      0.1026
     14  C10       19.4320   65.9060   36.7850 C.3   315  INH315      0.0267
     15  N1        19.9320   66.7240   35.6370 N.3   315  INH315     -0.2897
     16  O5        20.8960   67.6930   33.5380 O.3   315  INH315     -0.3131
     17  N2        20.7740   68.6060   34.5160 N.4   315  INH315     -0.1780
     18  O6        21.2120   69.7450   37.2520 O.3   315  INH315     -0.3858
     19  O7        19.2280   68.7490   39.2790 O.3   315  INH315     -0.3865
     20  O8        18.3660   66.1610   38.9280 O.3   315  INH315     -0.3415
     21  H1        16.9170   65.1630   37.7940 H     315  INH315      0.0937
     22  H2        16.9470   65.1230   40.8600 H     315  INH315      0.0671
     23  H3        15.1290   63.5850   38.9400 H     315  INH315      0.0647
     24  H4        14.4190   65.9060   40.8050 H     315  INH315      0.0643
     25  H5        14.0810   67.2350   38.7600 H     315  INH315      0.0587
     26  H6        14.6010   65.8470   37.7450 H     315  INH315      0.0587
     27  H7        17.4620   62.9110   40.4400 H     315  INH315      0.2101
     28  H8        15.6130   62.6310   40.9980 H     315  INH315      0.2100
     29  H9        12.7750   64.3350   40.3550 H     315  INH315      0.2100
     30  H10       19.2480   69.6150   36.8110 H     315  INH315      0.0654
     31  H11       20.7080   67.5130   38.5210 H     315  INH315      0.0647
     32  H12       17.8900   67.3700   37.3130 H     315  INH315      0.0636
     33  H13       18.6930   65.1700   36.4340 H     315  INH315      0.0451
     34  H14       20.2680   65.3820   37.2710 H     315  INH315      0.0451
     35  H15       21.0330   69.5970   34.4070 H     315  INH315      0.1559
     36  H16       21.2490   68.1080   32.7600 H     315  INH315      0.2363
     37  H17       21.9650   69.1940   37.4280 H     315  INH315      0.2100
     38  H18       18.4120   69.1500   39.0070 H     315  INH315      0.2100
     39  H19       20.0320   66.2310   34.7380 H     315  INH315      0.1240
@<TRIPOS>BOND
     1     1    20    1
     2     1    21    1
     3     1     9    1
     4     1     2    1
     5     2    22    1
     6     2     6    1
     7     2     3    1
     8     3    23    1
     9     3     7    1
    10     3     4    1
    11     4    24    1
    12     4     8    1
    13     4     5    1
    14     5    26    1
    15     5    25    1
    16     5     9    1
    17     6    27    1
    18     7    28    1
    19     8    29    1
    20    10    17    1
    21    10    15    1
    22    10    11    1
    23    11    30    1
    24    11    18    1
    25    11    12    1
    26    12    31    1
    27    12    19    1
    28    12    13    1
    29    13    32    1
    30    13    20    1
    31    13    14    1
    32    14    34    1
    33    14    33    1
    34    14    15    1
    35    15    39    1
    36    16    17    1
    37    16    36    1
    38    17    35    1
    39    18    37    1
    40    19    38    1
