@<TRIPOS>MOLECULE
/tmp/ewbell/vina_1fh9_1fh9_lig/vina/vina1.pdbqt
 28 29 0 0 0
SMALL
GASTEIGER

@<TRIPOS>ATOM
      1  C6        20.0710   67.8840   35.6080 C.3   315  INH315      0.2900
      2  C7        19.9130   68.8390   36.8660 C.3   315  INH315      0.1480
      3  C8        19.5740   67.9890   38.1620 C.3   315  INH315      0.1740
      4  C9        18.5480   66.8820   37.8430 C.3   315  INH315      0.1730
      5  C10       19.1940   65.8050   36.9230 C.3   315  INH315      0.1500
      6  N1        19.7000   66.5260   35.7140 N.3   315  INH315     -0.3960
      7  N2        20.5630   68.3040   34.4490 N.4   315  INH315     -0.2790
      8  H15       20.8350   69.2800   34.2640 H     315  INH315      0.1900
      9  H19       19.7890   65.9640   34.8550 H     315  INH315      0.1550
     10  O8        18.1420   66.2380   39.0440 O.3   315  INH315     -0.3490
     11  C1        16.8630   65.5900   38.8760 C.3   315  INH315      0.2910
     12  O4        15.8300   66.5640   39.0820 O.3   315  INH315     -0.3560
     13  C5        14.5030   66.0090   38.9310 C.3   315  INH315      0.2050
     14  C4        14.2700   64.9160   39.9780 C.3   315  INH315      0.1730
     15  C3        15.3510   63.8380   39.8640 C.3   315  INH315      0.1820
     16  C2        16.7450   64.4670   39.9080 C.3   315  INH315      0.2040
     17  O3        12.9890   64.3280   39.7850 O.3   315  INH315     -0.3910
     18  H9        12.6260   64.6250   38.9590 H     315  INH315      0.2100
     19  O2        15.2150   62.9180   40.9370 O.3   315  INH315     -0.3900
     20  H8        15.9860   62.9620   41.4910 H     315  INH315      0.2100
     21  O1        17.7270   63.4770   39.6390 O.3   315  INH315     -0.3880
     22  H7        18.5760   63.7880   39.9300 H     315  INH315      0.2100
     23  O7        19.0410   68.8320   39.1930 O.3   315  INH315     -0.3910
     24  H18       18.1290   68.6150   39.3400 H     315  INH315      0.2100
     25  O6        21.0290   69.6420   37.0890 O.3   315  INH315     -0.3960
     26  H17       21.5400   69.2840   37.8050 H     315  INH315      0.2090
     27  O5        20.6670   67.3180   33.5430 O.3   315  INH315     -0.2920
     28  H16       19.9230   66.7340   33.6240 H     315  INH315      0.2440
@<TRIPOS>BOND
     1    27    28    1
     2    27     7    1
     3     8     7    1
     4     7     1    1
     5     9     6    1
     6     1     6    1
     7     1     2    1
     8     6     5    1
     9     2    25    1
    10     2     3    1
    11     5     4    1
    12    25    26    1
    13     4     3    1
    14     4    10    1
    15     3    23    1
    16    11    10    1
    17    11    12    1
    18    11    16    1
    19    13    12    1
    20    13    14    1
    21    18    17    1
    22    23    24    1
    23    21    16    1
    24    21    22    1
    25    17    14    1
    26    15    16    1
    27    15    14    1
    28    15    19    1
    29    19    20    1
