@<TRIPOS>MOLECULE
/tmp/ewbell/vina_1fh9_1fh9_lig/vina/vina5.pdbqt
 28 29 0 0 0
SMALL
GASTEIGER

@<TRIPOS>ATOM
      1  C6        18.6950   67.9060   35.3810 C.3   315  INH315      0.2900
      2  C7        17.1810   67.8410   34.9120 C.3   315  INH315      0.1480
      3  C8        16.2200   67.7210   36.1680 C.3   315  INH315      0.1740
      4  C9        16.7950   66.7410   37.2110 C.3   315  INH315      0.1730
      5  C10       18.0800   67.3390   37.8550 C.3   315  INH315      0.1500
      6  N1        19.0180   67.6430   36.7310 N.3   315  INH315     -0.3960
      7  N2        19.6860   68.2230   34.5570 N.4   315  INH315     -0.2790
      8  H15       19.5580   68.4040   33.5510 H     315  INH315      0.1900
      9  H19       20.0200   67.6630   36.9680 H     315  INH315      0.1550
     10  O8        15.8480   66.5290   38.2500 O.3   315  INH315     -0.3490
     11  C1        15.5320   65.1280   38.3850 C.3   315  INH315      0.2910
     12  O4        14.3170   64.8650   37.6680 O.3   315  INH315     -0.3560
     13  C5        13.9160   63.4780   37.7410 C.3   315  INH315      0.2050
     14  C4        13.6430   63.0870   39.1960 C.3   315  INH315      0.1730
     15  C3        14.8770   63.3650   40.0580 C.3   315  INH315      0.1820
     16  C2        15.3490   64.8080   39.8700 C.3   315  INH315      0.2040
     17  O3        13.3120   61.7050   39.2700 O.3   315  INH315     -0.3910
     18  H9        12.4850   61.5540   38.8290 H     315  INH315      0.2100
     19  O2        14.5580   63.1480   41.4240 O.3   315  INH315     -0.3900
     20  H8        14.5780   62.2170   41.6090 H     315  INH315      0.2100
     21  O1        16.5830   65.0010   40.5470 O.3   315  INH315     -0.3880
     22  H7        16.8680   64.1780   40.9240 H     315  INH315      0.2100
     23  O7        14.9210   67.2640   35.7680 O.3   315  INH315     -0.3910
     24  H18       15.0070   66.4570   35.2770 H     315  INH315      0.2100
     25  O6        16.8070   68.9200   34.1130 O.3   315  INH315     -0.3960
     26  H17       16.1390   68.6420   33.4980 H     315  INH315      0.2090
     27  O5        20.8770   68.2810   35.1770 O.3   315  INH315     -0.2920
     28  H16       21.3900   67.5150   34.9490 H     315  INH315      0.2440
@<TRIPOS>BOND
     1    26    25    1
     2     8     7    1
     3    25     2    1
     4     7    27    1
     5     7     1    1
     6     2     1    1
     7     2     3    1
     8    28    27    1
     9    24    23    1
    10     1     6    1
    11    23     3    1
    12     3     4    1
    13     6     9    1
    14     6     5    1
    15     4     5    1
    16     4    10    1
    17    12    13    1
    18    12    11    1
    19    13    14    1
    20    10    11    1
    21    11    16    1
    22    18    17    1
    23    14    17    1
    24    14    15    1
    25    16    15    1
    26    16    21    1
    27    15    19    1
    28    21    22    1
    29    19    20    1
