@<TRIPOS>MOLECULE
/tmp/ewbell/vina_1fh9_1fh9_lig/vina/vina3.pdbqt
 28 29 0 0 0
SMALL
GASTEIGER

@<TRIPOS>ATOM
      1  C6        18.8210   67.4720   35.5550 C.3   315  INH315      0.2900
      2  C7        19.3020   66.8710   36.9430 C.3   315  INH315      0.1480
      3  C8        18.0550   66.3660   37.7850 C.3   315  INH315      0.1740
      4  C9        16.8840   67.3640   37.6890 C.3   315  INH315      0.1730
      5  C10       16.3040   67.3710   36.2440 C.3   315  INH315      0.1500
      6  N1        17.4440   67.6880   35.3290 N.3   315  INH315     -0.3960
      7  N2        19.6640   67.7660   34.5730 N.4   315  INH315     -0.2790
      8  H15       20.6870   67.6700   34.6500 H     315  INH315      0.1900
      9  H19       17.1950   68.1150   34.4250 H     315  INH315      0.1550
     10  O8        15.8400   66.9740   38.5730 O.3   315  INH315     -0.3490
     11  C1        15.5560   65.5650   38.4460 C.3   315  INH315      0.2910
     12  O4        14.4070   65.4070   37.6010 O.3   315  INH315     -0.3560
     13  C5        14.0420   64.0220   37.4100 C.3   315  INH315      0.2050
     14  C4        13.6700   63.3870   38.7530 C.3   315  INH315      0.1730
     15  C3        14.8270   63.5360   39.7450 C.3   315  INH315      0.1820
     16  C2        15.2700   64.9970   39.8380 C.3   315  INH315      0.2040
     17  O3        13.3750   62.0070   38.5700 O.3   315  INH315     -0.3910
     18  H9        13.7720   61.7040   37.7620 H     315  INH315      0.2100
     19  O2        14.4110   63.0870   41.0260 O.3   315  INH315     -0.3900
     20  H8        14.3120   63.8330   41.6060 H     315  INH315      0.2100
     21  O1        16.4430   65.0930   40.6340 O.3   315  INH315     -0.3880
     22  H7        16.7980   65.9720   40.5680 H     315  INH315      0.2100
     23  O7        18.4120   66.1990   39.1640 O.3   315  INH315     -0.3910
     24  H18       19.0400   65.4920   39.2450 H     315  INH315      0.2100
     25  O6        20.2410   65.8500   36.8040 O.3   315  INH315     -0.3960
     26  H17       20.6560   65.9160   35.9520 H     315  INH315      0.2090
     27  O5        19.0390   68.2010   33.4670 O.3   315  INH315     -0.2920
     28  H16       18.1060   68.0420   33.5480 H     315  INH315      0.2440
@<TRIPOS>BOND
     1    27    28    1
     2    27     7    1
     3     9     6    1
     4     7     8    1
     5     7     1    1
     6     6     1    1
     7     6     5    1
     8     1     2    1
     9    26    25    1
    10     5     4    1
    11    25     2    1
    12     2     3    1
    13    13    12    1
    14    13    14    1
    15    12    11    1
    16     4     3    1
    17     4    10    1
    18    18    17    1
    19     3    23    1
    20    11    10    1
    21    11    16    1
    22    17    14    1
    23    14    15    1
    24    23    24    1
    25    15    16    1
    26    15    19    1
    27    16    21    1
    28    22    21    1
    29    19    20    1
