@<TRIPOS>MOLECULE
/tmp/ewbell/vina_1fh9_1fh9_lig/vina/vina2.pdbqt
 28 29 0 0 0
SMALL
GASTEIGER

@<TRIPOS>ATOM
      1  C6        18.2820   67.5240   30.1330 C.3   315  INH315      0.2900
      2  C7        17.1020   68.5010   30.5450 C.3   315  INH315      0.1480
      3  C8        17.4380   69.2210   31.9180 C.3   315  INH315      0.1740
      4  C9        18.0670   68.2330   32.9200 C.3   315  INH315      0.1730
      5  C10       19.4840   67.8080   32.4340 C.3   315  INH315      0.1500
      6  N1        19.3120   67.2460   31.0590 N.3   315  INH315     -0.3960
      7  N2        18.3590   66.9630   28.9330 N.4   315  INH315     -0.2790
      8  H15       17.6450   67.0810   28.2000 H     315  INH315      0.1900
      9  H19       20.0300   66.5760   30.7490 H     315  INH315      0.1550
     10  O8        18.2140   68.8570   34.1900 O.3   315  INH315     -0.3490
     11  C1        18.3850   67.8740   35.2330 C.3   315  INH315      0.2910
     12  O4        17.1290   67.7050   35.9060 O.3   315  INH315     -0.3560
     13  C5        17.1960   66.7320   36.9730 C.3   315  INH315      0.2050
     14  C4        18.1920   67.1930   38.0420 C.3   315  INH315      0.1730
     15  C3        19.5650   67.4390   37.4120 C.3   315  INH315      0.1820
     16  C2        19.4450   68.3800   36.2120 C.3   315  INH315      0.2040
     17  O3        18.3040   66.2030   39.0570 O.3   315  INH315     -0.3910
     18  H9        18.3760   66.6260   39.9050 H     315  INH315      0.2100
     19  O2        20.4310   68.0160   38.3780 O.3   315  INH315     -0.3900
     20  H8        21.2880   67.6090   38.3190 H     315  INH315      0.2100
     21  O1        20.6960   68.4680   35.5440 O.3   315  INH315     -0.3880
     22  H7        21.0910   69.3130   35.7230 H     315  INH315      0.2100
     23  O7        16.2510   69.7790   32.4990 O.3   315  INH315     -0.3910
     24  H18       15.5100   69.2190   32.3040 H     315  INH315      0.2100
     25  O6        16.7990   69.4410   29.5630 O.3   315  INH315     -0.3960
     26  H17       15.9040   69.7400   29.6750 H     315  INH315      0.2090
     27  O5        19.4710   66.2250   28.7770 O.3   315  INH315     -0.2920
     28  H16       19.9420   66.1850   29.6010 H     315  INH315      0.2440
@<TRIPOS>BOND
     1     8     7    1
     2    27     7    1
     3    27    28    1
     4     7     1    1
     5    25    26    1
     6    25     2    1
     7     1     2    1
     8     1     6    1
     9     2     3    1
    10     9     6    1
    11     6     5    1
    12     3    23    1
    13     3     4    1
    14    24    23    1
    15     5     4    1
    16     4    10    1
    17    10    11    1
    18    11    12    1
    19    11    16    1
    20    21    22    1
    21    21    16    1
    22    12    13    1
    23    16    15    1
    24    13    14    1
    25    15    14    1
    26    15    19    1
    27    14    17    1
    28    20    19    1
    29    17    18    1
