@<TRIPOS>MOLECULE
/tmp/ewbell/vina_1fh9_1fh9_lig/vina/vina4.pdbqt
 28 29 0 0 0
SMALL
GASTEIGER

@<TRIPOS>ATOM
      1  C6        18.0190   66.8820   37.6480 C.3   315  INH315      0.2900
      2  C7        19.4700   67.3420   37.2030 C.3   315  INH315      0.1480
      3  C8        19.3840   68.2660   35.9170 C.3   315  INH315      0.1740
      4  C9        18.3590   67.7130   34.9080 C.3   315  INH315      0.1730
      5  C10       16.9180   67.8440   35.4840 C.3   315  INH315      0.1500
      6  N1        16.9190   67.1290   36.7980 N.3   315  INH315     -0.3960
      7  N2        17.7830   66.2850   38.8100 N.4   315  INH315     -0.2790
      8  H15       18.5200   66.0360   39.4850 H     315  INH315      0.1900
      9  H19       16.0070   66.7740   37.1220 H     315  INH315      0.1550
     10  O8        18.4110   68.4640   33.7010 O.3   315  INH315     -0.3490
     11  C1        18.5130   67.5950   32.5540 C.3   315  INH315      0.2910
     12  O4        19.9010   67.3160   32.3180 O.3   315  INH315     -0.3560
     13  C5        20.1080   66.4440   31.1830 C.3   315  INH315      0.2050
     14  C4        19.5870   67.1110   29.9070 C.3   315  INH315      0.1730
     15  C3        18.1110   67.4840   30.0720 C.3   315  INH315      0.1820
     16  C2        17.9040   68.3070   31.3450 C.3   315  INH315      0.2040
     17  O3        19.7330   66.2240   28.8040 O.3   315  INH315     -0.3910
     18  H9        19.7460   65.3280   29.1190 H     315  INH315      0.2100
     19  O2        17.6860   68.2400   28.9480 O.3   315  INH315     -0.3900
     20  H8        18.2940   68.9550   28.7990 H     315  INH315      0.2100
     21  O1        16.5150   68.5050   31.5680 O.3   315  INH315     -0.3880
     22  H7        16.2120   67.8950   32.2300 H     315  INH315      0.2100
     23  O7        20.6640   68.3590   35.2750 O.3   315  INH315     -0.3910
     24  H18       21.0470   69.2080   35.4530 H     315  INH315      0.2100
     25  O6        20.1780   67.9840   38.2180 O.3   315  INH315     -0.3960
     26  H17       19.9580   67.5920   39.0540 H     315  INH315      0.2090
     27  O5        16.4770   66.0400   39.0100 O.3   315  INH315     -0.2920
     28  H16       16.2330   66.3190   39.8840 H     315  INH315      0.2440
@<TRIPOS>BOND
     1    20    19    1
     2    17    18    1
     3    17    14    1
     4    19    15    1
     5    14    15    1
     6    14    13    1
     7    15    16    1
     8    13    12    1
     9    16    21    1
    10    16    11    1
    11    21    22    1
    12    12    11    1
    13    11    10    1
    14    10     4    1
    15     4     5    1
    16     4     3    1
    17    23    24    1
    18    23     3    1
    19     5     6    1
    20     3     2    1
    21     6     9    1
    22     6     1    1
    23     2     1    1
    24     2    25    1
    25     1     7    1
    26    25    26    1
    27     7    27    1
    28     7     8    1
    29    27    28    1
