@<TRIPOS>MOLECULE
./ligand/2j78_lig.pdb
 26 26 0 0 0
SMALL
GASTEIGER

@<TRIPOS>ATOM
      1  C1         0.1250   11.4600   10.3170 C.3   448  INH448      0.1582
      2  N1         0.5030   11.3590   11.5760 N.4   448  INH448     -0.1780
      3  C2         1.1740   12.1210    9.4020 C.3   448  INH448      0.1199
      4  N2        -1.1350   10.9800    9.9070 N.3   448  INH448     -0.2849
      5  O1        -0.3610   10.7420   12.4840 O.3   448  INH448     -0.3131
      6  O2         1.6700   13.3100    9.9680 O.3   448  INH448     -0.3858
      7  C3         0.5390   12.4040    8.0430 C.3   448  INH448      0.1115
      8  O3         1.6100   12.6700    7.1400 O.3   448  INH448     -0.3865
      9  C4        -0.2660   11.1900    7.5690 C.3   448  INH448      0.1010
     10  O4        -0.6380   11.3320    6.2030 O.3   448  INH448     -0.3875
     11  C5        -1.5140   11.1240    8.4950 C.3   448  INH448      0.0610
     12  C6        -2.4280    9.9260    8.1640 C.3   448  INH448      0.0621
     13  O5        -1.7790    8.6990    8.4330 O.3   448  INH448     -0.3934
     14  H1         2.0140   11.4240    9.2650 H     448  INH448      0.0654
     15  H2        -1.7760   10.5380   10.5820 H     448  INH448      0.1243
     16  H3         0.0360   10.7390   13.3470 H     448  INH448      0.2363
     17  H4         2.0620   13.1190   10.8120 H     448  INH448      0.2100
     18  H5        -0.1250   13.2780    8.1110 H     448  INH448      0.0647
     19  H6         1.2580   12.8520    6.2770 H     448  INH448      0.2100
     20  H7         0.3320   10.2740    7.6820 H     448  INH448      0.0636
     21  H8        -1.1350   10.5700    5.9290 H     448  INH448      0.2100
     22  H9        -2.0830   12.0560    8.3660 H     448  INH448      0.0510
     23  H10       -2.6970    9.9630    7.0980 H     448  INH448      0.0573
     24  H11       -3.3400    9.9910    8.7750 H     448  INH448      0.0573
     25  H12       -2.3620    7.9790    8.2210 H     448  INH448      0.2095
     26  H13        1.4150   11.7270   11.8830 H     448  INH448      0.1559
@<TRIPOS>BOND
     1     1     4    1
     2     1     3    1
     3     1     2    1
     4     2    26    1
     5     2     5    1
     6     3    14    1
     7     3     7    1
     8     3     6    1
     9     4    11    1
    10     4    15    1
    11     5    16    1
    12     6    17    1
    13     7    18    1
    14     7     9    1
    15     7     8    1
    16     8    19    1
    17     9    20    1
    18     9    11    1
    19     9    10    1
    20    10    21    1
    21    11    22    1
    22    11    12    1
    23    12    24    1
    24    12    23    1
    25    12    13    1
    26    13    25    1
