@<TRIPOS>MOLECULE
/tmp/ewbell/vina_2j78_2j78_lig/vina/vina1.pdbqt
 20 20 0 0 0
SMALL
GASTEIGER

@<TRIPOS>ATOM
      1  C1         0.1230   11.1930   10.3130 C.3   448  INH448      0.6910
      2  N1         0.4400   10.9510   11.5700 N.4   448  INH448     -0.2700
      3  C2         1.2630   11.8280    9.4930 C.3   448  INH448      0.2030
      4  N2        -1.1570   10.8680    9.8230 N.3   448  INH448     -0.0850
      5  C3         0.7110   12.2820    8.1450 C.3   448  INH448      0.1810
      6  C4        -0.1810   11.1920    7.5410 C.3   448  INH448      0.1810
      7  C5        -1.4650   11.1650    8.4170 C.3   448  INH448      0.2280
      8  H2        -1.8620   10.4330   10.4350 H     448  INH448      0.2630
      9  H13        1.3690   11.2060   11.9370 H     448  INH448      0.1900
     10  O2         1.8410   12.9130   10.1770 O.3   448  INH448     -0.3890
     11  H4         2.7870   12.8660   10.1030 H     448  INH448      0.2100
     12  O1        -0.5110   10.3430   12.3920 O.3   448  INH448     -0.2920
     13  H3        -0.8810   10.9910   12.9810 H     448  INH448      0.2440
     14  C6        -2.4700   10.0900    7.9540 C.3   448  INH448      0.1980
     15  O5        -2.0960    8.8080    8.4180 O.3   448  INH448     -0.3990
     16  H12       -2.3190    8.7260    9.3380 H     448  INH448      0.2090
     17  O3         1.8370   12.5220    7.3030 O.3   448  INH448     -0.3900
     18  H6         1.7060   13.3310    6.8230 H     448  INH448      0.2100
     19  O4        -0.4830   11.4830    6.1810 O.3   448  INH448     -0.3910
     20  H8         0.2390   11.9590    5.7900 H     448  INH448      0.2100
@<TRIPOS>BOND
     1    20    19    1
     2    19     6    1
     3    18    17    1
     4    17     5    1
     5     6     5    1
     6     6     7    1
     7    14     7    1
     8    14    15    1
     9     5     3    1
    10     7     4    1
    11    15    16    1
    12     3    10    1
    13     3     1    1
    14     4     1    1
    15     4     8    1
    16    11    10    1
    17     1     2    1
    18     2     9    1
    19     2    12    1
    20    12    13    1
