@<TRIPOS>MOLECULE
/tmp/ewbell/vina_2j78_2j78_lig/vina/vina3.pdbqt
 20 20 0 0 0
SMALL
GASTEIGER

@<TRIPOS>ATOM
      1  C1        -2.2310    7.2100   16.2110 C.3   448  INH448      0.6910
      2  N1        -3.4300    7.7330   16.0440 N.4   448  INH448     -0.2700
      3  C2        -1.3170    7.3400   14.9770 C.3   448  INH448      0.2030
      4  N2        -1.8770    6.6060   17.4340 N.3   448  INH448     -0.0850
      5  C3        -0.0650    6.4940   15.1960 C.3   448  INH448      0.1810
      6  C4         0.4840    6.7130   16.6090 C.3   448  INH448      0.1810
      7  C5        -0.5330    6.0280   17.5670 C.3   448  INH448      0.2280
      8  H2        -2.5460    6.5700   18.2170 H     448  INH448      0.2630
      9  H13       -3.6990    8.1570   15.1450 H     448  INH448      0.1900
     10  O2        -1.9810    6.9380   13.8040 O.3   448  INH448     -0.3890
     11  H4        -1.3670    6.4970   13.2280 H     448  INH448      0.2100
     12  O1        -4.3260    7.7000   17.1150 O.3   448  INH448     -0.2920
     13  H3        -4.9570    8.4040   17.0220 H     448  INH448      0.2440
     14  C6        -0.1370    6.1810   19.0500 C.3   448  INH448      0.1980
     15  O5         0.6150    7.3600   19.2590 O.3   448  INH448     -0.3990
     16  H12        1.5420    7.1530   19.2290 H     448  INH448      0.2090
     17  O3         0.8880    6.9190   14.2250 O.3   448  INH448     -0.3900
     18  H6         1.3130    7.7130   14.5250 H     448  INH448      0.2100
     19  O4         1.7830    6.1480   16.7400 O.3   448  INH448     -0.3910
     20  H8         1.8310    5.3440   16.2370 H     448  INH448      0.2100
@<TRIPOS>BOND
     1    11    10    1
     2    10     3    1
     3    17    18    1
     4    17     5    1
     5     3     5    1
     6     3     1    1
     7     9     2    1
     8     5     6    1
     9     2     1    1
    10     2    12    1
    11     1     4    1
    12    20    19    1
    13     6    19    1
    14     6     7    1
    15    13    12    1
    16     4     7    1
    17     4     8    1
    18     7    14    1
    19    14    15    1
    20    16    15    1
