@<TRIPOS>MOLECULE
/tmp/ewbell/vina_2j78_2j78_lig/vina/vina2.pdbqt
 20 20 0 0 0
SMALL
GASTEIGER

@<TRIPOS>ATOM
      1  C1        -0.6480    6.5140   17.7840 C.3   448  INH448      0.6910
      2  N1        -0.0900    6.3270   18.9630 N.4   448  INH448     -0.2700
      3  C2        -1.4700    5.3100   17.2850 C.3   448  INH448      0.2030
      4  N2        -0.4770    7.7320   17.0950 N.3   448  INH448     -0.0850
      5  C3        -1.8570    5.5430   15.8270 C.3   448  INH448      0.1810
      6  C4        -2.3630    6.9760   15.6330 C.3   448  INH448      0.1810
      7  C5        -1.1120    7.8880   15.7800 C.3   448  INH448      0.2280
      8  H2         0.0810    8.4950   17.5050 H     448  INH448      0.2630
      9  H13       -0.1970    5.4310   19.4600 H     448  INH448      0.1900
     10  O2        -0.7490    4.1090   17.4140 O.3   448  INH448     -0.3890
     11  H4         0.0340    4.1510   16.8770 H     448  INH448      0.2100
     12  O1         0.6490    7.3710   19.5240 O.3   448  INH448     -0.2920
     13  H3         0.7930    8.0440   18.8690 H     448  INH448      0.2440
     14  C6        -1.4560    9.3850   15.6370 C.3   448  INH448      0.1980
     15  O5        -2.7710    9.6510   16.0820 O.3   448  INH448     -0.3990
     16  H12       -2.8650    9.3620   16.9830 H     448  INH448      0.2090
     17  O3        -2.8910    4.6090   15.5250 O.3   448  INH448     -0.3900
     18  H6        -3.2070    4.2160   16.3290 H     448  INH448      0.2100
     19  O4        -2.9720    7.1290   14.3570 O.3   448  INH448     -0.3910
     20  H8        -3.0090    6.2860   13.9200 H     448  INH448      0.2100
@<TRIPOS>BOND
     1    20    19    1
     2    19     6    1
     3    17     5    1
     4    17    18    1
     5     6     7    1
     6     6     5    1
     7    14     7    1
     8    14    15    1
     9     7     4    1
    10     5     3    1
    11    15    16    1
    12    11    10    1
    13     4     8    1
    14     4     1    1
    15     3    10    1
    16     3     1    1
    17     1     2    1
    18    13    12    1
    19     2     9    1
    20     2    12    1
