@<TRIPOS>MOLECULE
/tmp/ewbell/vina_2j78_2j78_lig/vina/vina4.pdbqt
 20 20 0 0 0
SMALL
GASTEIGER

@<TRIPOS>ATOM
      1  C1         0.7930   10.7170    9.9940 C.3   448  INH448      0.6910
      2  N1         1.4130   11.7790    9.5200 N.4   448  INH448     -0.2700
      3  C2         0.7230    9.5410    9.0010 C.3   448  INH448      0.2030
      4  N2         0.2710   10.7180   11.3030 N.3   448  INH448     -0.0850
      5  C3        -0.2170    8.4750    9.5600 C.3   448  INH448      0.1810
      6  C4         0.0740    8.2360   11.0450 C.3   448  INH448      0.1810
      7  C5        -0.4200    9.5130   11.7820 C.3   448  INH448      0.2280
      8  H2         0.3710   11.5440   11.9100 H     448  INH448      0.2630
      9  H13        1.7790   11.7890    8.5570 H     448  INH448      0.1900
     10  O2         0.2820    9.9670    7.7340 O.3   448  INH448     -0.3890
     11  H4         0.1310   10.9040    7.7510 H     448  INH448      0.2100
     12  O1         1.5640   12.8910   10.3530 O.3   448  INH448     -0.2920
     13  H3         0.7300   13.0970   10.7590 H     448  INH448      0.2440
     14  C6        -0.1730    9.4440   13.3040 C.3   448  INH448      0.1980
     15  O5         1.1030    8.9080   13.5900 O.3   448  INH448     -0.3990
     16  H12        1.5060    8.6010   12.7860 H     448  INH448      0.2090
     17  O3         0.0240    7.2860    8.8110 O.3   448  INH448     -0.3900
     18  H6         0.8840    7.3330    8.4110 H     448  INH448      0.2100
     19  O4        -0.6000    7.0720   11.5100 O.3   448  INH448     -0.3910
     20  H8        -0.4730    6.3630   10.8910 H     448  INH448      0.2100
@<TRIPOS>BOND
     1    10    11    1
     2    10     3    1
     3    18    17    1
     4     9     2    1
     5    17     5    1
     6     3     5    1
     7     3     1    1
     8     2     1    1
     9     2    12    1
    10     5     6    1
    11     1     4    1
    12    12    13    1
    13    20    19    1
    14     6    19    1
    15     6     7    1
    16     4     7    1
    17     4     8    1
    18     7    14    1
    19    16    15    1
    20    14    15    1
