@<TRIPOS>MOLECULE
/tmp/ewbell/vina_2j78_2j78_lig/vina/vina5.pdbqt
 20 20 0 0 0
SMALL
GASTEIGER

@<TRIPOS>ATOM
      1  C1         0.5350   11.3180    9.5440 C.3   448  INH448      0.6910
      2  N1         0.9910   12.5350    9.3260 N.4   448  INH448     -0.2700
      3  C2        -0.6440   10.9220    8.6340 C.3   448  INH448      0.2030
      4  N2         1.1210   10.4990   10.5300 N.3   448  INH448     -0.0850
      5  C3        -1.2390    9.6090    9.1370 C.3   448  INH448      0.1810
      6  C4        -0.1240    8.6090    9.4610 C.3   448  INH448      0.1810
      7  C5         0.5710    9.1530   10.7410 C.3   448  INH448      0.2280
      8  H2         1.9180   10.8360   11.0900 H     448  INH448      0.2630
      9  H13        0.5520   13.1440    8.6200 H     448  INH448      0.1900
     10  O2        -1.6290   11.9260    8.6070 O.3   448  INH448     -0.3890
     11  H4        -1.4080   12.5680    7.9410 H     448  INH448      0.2100
     12  O1         2.0830   12.9820   10.0740 O.3   448  INH448     -0.2920
     13  H3         2.4090   12.2710   10.6140 H     448  INH448      0.2440
     14  C6         1.7490    8.2660   11.1920 C.3   448  INH448      0.1980
     15  O5         2.1710    7.4090   10.1490 O.3   448  INH448     -0.3990
     16  H12        2.4670    6.5840   10.5170 H     448  INH448      0.2090
     17  O3        -2.0630    9.1060    8.0870 O.3   448  INH448     -0.3900
     18  H6        -2.9360    8.9400    8.4230 H     448  INH448      0.2100
     19  O4        -0.6580    7.3070    9.6710 O.3   448  INH448     -0.3910
     20  H8        -1.2900    7.1100    8.9900 H     448  INH448      0.2100
@<TRIPOS>BOND
     1    11    10    1
     2    17    18    1
     3    17     5    1
     4    10     3    1
     5     9     2    1
     6     3     5    1
     7     3     1    1
     8    20    19    1
     9     5     6    1
    10     2     1    1
    11     2    12    1
    12     6    19    1
    13     6     7    1
    14     1     4    1
    15    12    13    1
    16    15    16    1
    17    15    14    1
    18     4     7    1
    19     4     8    1
    20     7    14    1
