@<TRIPOS>MOLECULE
/tmp/ewbell/vina_2j4i_2j4i_lig/vina/vina5.pdbqt
 38 40 0 0 0
SMALL
GASTEIGER

@<TRIPOS>ATOM
      1  N3         7.1500    5.9800   19.3610 N.am  292  INH292     -0.3370
      2  C10        6.7320    7.2660   19.2920 C.2   292  INH292      0.2440
      3  O4         6.4420    7.8560   18.2470 O.2   292  INH292     -0.2710
      4  C11        6.6750    7.8200   20.7240 C.3   292  INH292      0.1860
      5  C12        6.6850    6.5430   21.5800 C.3   292  INH292      0.0550
      6  C13        7.4660    5.5360   20.7270 C.3   292  INH292      0.1290
      7  C8         7.4000    5.1690   18.1790 C.3   292  INH292      0.1750
      8  C9         8.6710    4.3290   18.4080 C.3   292  INH292      0.0420
      9  C7         6.2160    4.2970   17.7280 C.2   292  INH292      0.2420
     10  N2         5.9010    4.2030   16.3860 N.am  292  INH292     -0.3450
     11  O3         5.6270    3.7340   18.6480 O.2   292  INH292     -0.2710
     12  C3         6.7320    4.9380   15.4230 C.3   292  INH292      0.1460
     13  C2         6.1740    6.3030   15.0530 C.3   292  INH292      0.1510
     14  N1         6.7730    6.7510   13.8070 N.3   292  INH292     -0.3180
     15  H4         7.3030    6.1370   13.2220 H     292  INH292      0.1720
     16  S1         6.5140    8.4200   13.3950 S.O2  292  INH292      0.2220
     17  C1         8.1010    9.0420   12.8870 C.3   292  INH292      0.1850
     18  O2         5.5800    8.4340   12.3220 O.2   292  INH292     -0.2060
     19  O1         6.1150    9.0070   14.6240 O.2   292  INH292     -0.2060
     20  C4         4.7520    3.4490   15.7980 C.3   292  INH292      0.0790
     21  C6         3.4600    4.2930   15.8250 C.3   292  INH292      0.0320
     22  C5         5.0430    3.0180   14.3560 C.3   292  INH292      0.0320
     23  N4         5.5850    8.7360   21.0260 N.3   292  INH292     -0.3010
     24  H25        4.6680    8.5850   20.6560 H     292  INH292      0.1730
     25  S2         5.9190   10.0890   22.0380 S.O2  292  INH292      0.2590
     26  O6         4.7540   10.5360   22.7050 O.2   292  INH292     -0.2010
     27  O5         6.6250   10.9510   21.1600 O.2   292  INH292     -0.2010
     28  C14        6.9570    9.4570   23.3410 C.ar  292  INH292      0.0800
     29  C20        8.3290    9.6640   23.2230 C.ar  292  INH292      0.0370
     30  C19        9.1930    9.1850   24.2630 C.ar  292  INH292     -0.0240
     31  C17        8.5980    8.5180   25.3660 C.ar  292  INH292     -0.0240
     32  C21       10.5820    9.3410   24.1820 C.ar  292  INH292      0.0140
     33  C16        7.2090    8.3140   25.4400 C.ar  292  INH292      0.0140
     34  C18        9.4160    8.0290   26.3980 C.ar  292  INH292      0.0360
     35  C15        6.3660    8.7960   24.4200 C.ar  292  INH292      0.0260
     36  C23       10.7920    8.2020   26.3160 C.ar  292  INH292      0.0340
     37  C22       11.4140    8.8640   25.2230 C.ar  292  INH292      0.0240
     38 Cl1        11.7340    7.6020   27.6470 Cl    292  INH292     -0.0840
@<TRIPOS>BOND
     1    18    16    2
     2    17    16    1
     3    15    14    1
     4    16    14    1
     5    16    19    2
     6    14    13    1
     7    22    20    1
     8    13    12    1
     9    12    10    1
    10    20    21    1
    11    20    10    1
    12    10     9   am
    13     9     7    1
    14     9    11    2
    15     7     8    1
    16     7     1    1
    17     3     2    2
    18     2     1   am
    19     2     4    1
    20     1     6    1
    21    24    23    1
    22     4    23    1
    23     4     5    1
    24     6     5    1
    25    23    25    1
    26    27    25    2
    27    25    26    2
    28    25    28    1
    29    29    28   ar
    30    29    30   ar
    31    28    35   ar
    32    32    30   ar
    33    32    37   ar
    34    30    31   ar
    35    35    33   ar
    36    37    36   ar
    37    31    33   ar
    38    31    34   ar
    39    36    34   ar
    40    36    38    1
