@<TRIPOS>MOLECULE
/tmp/ewbell/vina_2j4i_2j4i_lig/vina/vina4.pdbqt
 38 40 0 0 0
SMALL
GASTEIGER

@<TRIPOS>ATOM
      1  N3         4.1530    8.8450   24.4060 N.am  292  INH292     -0.3370
      2  C10        5.1470    7.9270   24.3910 C.2   292  INH292      0.2440
      3  O4         5.3690    7.1150   25.2950 O.2   292  INH292     -0.2710
      4  C11        5.9060    8.0780   23.0640 C.3   292  INH292      0.1860
      5  C12        4.9200    8.8810   22.2000 C.3   292  INH292      0.0550
      6  C13        4.1350    9.7140   23.2200 C.3   292  INH292      0.1290
      7  C8         3.2810    9.0430   25.5540 C.3   292  INH292      0.1750
      8  C9         3.8440   10.1860   26.4210 C.3   292  INH292      0.0420
      9  C7         1.7980    9.2670   25.2130 C.2   292  INH292      0.2420
     10  N2         1.0110    8.2000   24.8230 N.am  292  INH292     -0.3450
     11  O3         1.4280   10.4330   25.3240 O.2   292  INH292     -0.2710
     12  C3         1.6260    6.8670   24.7630 C.3   292  INH292      0.1460
     13  C2         0.6210    5.7280   24.8360 C.3   292  INH292      0.1510
     14  N1         0.9020    4.7660   23.7830 N.3   292  INH292     -0.3180
     15  H4         0.6910    4.9510   22.8240 H     292  INH292      0.1720
     16  S1         1.6280    3.2710   24.2950 S.O2  292  INH292      0.2220
     17  C1         2.0790    2.4200   22.8000 C.3   292  INH292      0.1850
     18  O2         2.7730    3.6170   25.0640 O.2   292  INH292     -0.2060
     19  O1         0.5690    2.5960   24.9550 O.2   292  INH292     -0.2060
     20  C4        -0.4220    8.2650   24.4050 C.3   292  INH292      0.0790
     21  C6        -1.3150    8.7800   25.5550 C.3   292  INH292      0.0320
     22  C5        -0.6080    9.1680   23.1800 C.3   292  INH292      0.0320
     23  N4         6.3860    6.8510   22.4440 N.3   292  INH292     -0.3010
     24  H25        7.3360    6.5590   22.5480 H     292  INH292      0.1730
     25  S2         5.2690    5.9170   21.5240 S.O2  292  INH292      0.2590
     26  O6         4.8340    6.6170   20.3730 O.2   292  INH292     -0.2010
     27  O5         4.3390    5.5030   22.5130 O.2   292  INH292     -0.2010
     28  C14        6.2160    4.5540   20.8770 C.ar  292  INH292      0.0800
     29  C20        7.2740    4.8570   20.0240 C.ar  292  INH292      0.0370
     30  C19        8.0700    3.7850   19.4990 C.ar  292  INH292     -0.0240
     31  C17        7.7330    2.4600   19.8800 C.ar  292  INH292     -0.0240
     32  C21        9.1270    4.0320   18.6150 C.ar  292  INH292      0.0140
     33  C16        6.6470    2.1930   20.7320 C.ar  292  INH292      0.0140
     34  C18        8.4860    1.3860   19.3780 C.ar  292  INH292      0.0360
     35  C15        5.8750    3.2520   21.2510 C.ar  292  INH292      0.0260
     36  C23        9.5430    1.6420   18.5140 C.ar  292  INH292      0.0340
     37  C22        9.9010    2.9580   18.1140 C.ar  292  INH292      0.0240
     38 Cl1        10.4510    0.2660   17.9630 Cl    292  INH292     -0.0840
@<TRIPOS>BOND
     1    38    36    1
     2    37    36   ar
     3    37    32   ar
     4    36    34   ar
     5    32    30   ar
     6    34    31   ar
     7    30    31   ar
     8    30    29   ar
     9    31    33   ar
    10    29    28   ar
    11    26    25    2
    12    33    35   ar
    13    28    35   ar
    14    28    25    1
    15    25    23    1
    16    25    27    2
    17     5     4    1
    18     5     6    1
    19    23    24    1
    20    23     4    1
    21    17    16    1
    22    15    14    1
    23     4     2    1
    24    22    20    1
    25     6     1    1
    26    14    16    1
    27    14    13    1
    28    16    19    2
    29    16    18    2
    30     2     1   am
    31     2     3    2
    32    20    10    1
    33    20    21    1
    34     1     7    1
    35    12    10    1
    36    12    13    1
    37    10     9   am
    38     9    11    2
    39     9     7    1
    40     7     8    1
