@<TRIPOS>MOLECULE
/tmp/ewbell/vina_2j4i_2j4i_lig/vina/vina1.pdbqt
 38 40 0 0 0
SMALL
GASTEIGER

@<TRIPOS>ATOM
      1  N3         6.3740    6.5300   19.8020 N.am  292  INH292     -0.3370
      2  C10        5.5090    6.9150   20.7690 C.2   292  INH292      0.2440
      3  O4         4.3590    6.4830   20.8980 O.2   292  INH292     -0.2710
      4  C11        6.2230    7.9470   21.6550 C.3   292  INH292      0.1860
      5  C12        7.7030    7.7260   21.3050 C.3   292  INH292      0.0550
      6  C13        7.6660    7.2300   19.8540 C.3   292  INH292      0.1290
      7  C8         6.0030    5.6180   18.7300 C.3   292  INH292      0.1750
      8  C9         5.5140    6.4380   17.5210 C.3   292  INH292      0.0420
      9  C7         7.0910    4.6080   18.3300 C.2   292  INH292      0.2420
     10  N2         7.4490    3.5970   19.2020 N.am  292  INH292     -0.3450
     11  O3         7.5690    4.8020   17.2150 O.2   292  INH292     -0.2710
     12  C3         6.7520    3.5130   20.4930 C.3   292  INH292      0.1460
     13  C2         5.4430    2.7410   20.4300 C.3   292  INH292      0.1510
     14  N1         4.4260    3.4490   21.1890 N.3   292  INH292     -0.3180
     15  H4         3.9620    4.2580   20.8290 H     292  INH292      0.1720
     16  S1         4.0660    2.8050   22.7630 S.O2  292  INH292      0.2220
     17  C1         2.3090    2.5270   22.7780 C.3   292  INH292      0.1850
     18  O2         4.7870    1.5840   22.8770 O.2   292  INH292     -0.2060
     19  O1         4.4140    3.8620   23.6430 O.2   292  INH292     -0.2060
     20  C4         8.5220    2.5800   18.9840 C.3   292  INH292      0.0790
     21  C6         8.0100    1.4060   18.1220 C.3   292  INH292      0.0320
     22  C5         9.7520    3.2000   18.3110 C.3   292  INH292      0.0320
     23  N4         5.9300    7.8980   23.0800 N.3   292  INH292     -0.3010
     24  H25        5.5350    7.0790   23.4970 H     292  INH292      0.1730
     25  S2         6.2820    9.2910   24.0300 S.O2  292  INH292      0.2590
     26  O6         5.5660    9.2790   25.2510 O.2   292  INH292     -0.2010
     27  O5         6.1010   10.3430   23.0950 O.2   292  INH292     -0.2010
     28  C14        7.9860    9.1090   24.5170 C.ar  292  INH292      0.0800
     29  C20        8.2550    8.2840   25.6070 C.ar  292  INH292      0.0370
     30  C19        9.6180    8.1000   26.0160 C.ar  292  INH292     -0.0240
     31  C17       10.6280    8.7750   25.2820 C.ar  292  INH292     -0.0240
     32  C21        9.9420    7.3050   27.1220 C.ar  292  INH292      0.0140
     33  C16       10.3140    9.6110   24.1970 C.ar  292  INH292      0.0140
     34  C18       11.9720    8.6230   25.6600 C.ar  292  INH292      0.0360
     35  C15        8.9750    9.7810   23.7950 C.ar  292  INH292      0.0260
     36  C23       12.2860    7.8200   26.7490 C.ar  292  INH292      0.0340
     37  C22       11.2950    7.1350   27.5030 C.ar  292  INH292      0.0240
     38 Cl1        13.9720    7.6520   27.1350 Cl    292  INH292     -0.0840
@<TRIPOS>BOND
     1    11     9    2
     2     8     7    1
     3    21    20    1
     4    22    20    1
     5     9     7    1
     6     9    10   am
     7     7     1    1
     8    20    10    1
     9    10    12    1
    10     1     6    1
    11     1     2   am
    12     6     5    1
    13    13    12    1
    14    13    14    1
    15     2     3    2
    16     2     4    1
    17    15    14    1
    18    14    16    1
    19     5     4    1
    20     4    23    1
    21    16    17    1
    22    16    18    2
    23    16    19    2
    24    23    24    1
    25    23    25    1
    26    27    25    2
    27    35    33   ar
    28    35    28   ar
    29    25    28    1
    30    25    26    2
    31    33    31   ar
    32    28    29   ar
    33    31    34   ar
    34    31    30   ar
    35    29    30   ar
    36    34    36   ar
    37    30    32   ar
    38    36    38    1
    39    36    37   ar
    40    32    37   ar
