@<TRIPOS>MOLECULE
/tmp/ewbell/vina_2j4i_2j4i_lig/vina/vina2.pdbqt
 38 40 0 0 0
SMALL
GASTEIGER

@<TRIPOS>ATOM
      1  N3         3.7280    7.2610   24.1960 N.am  292  INH292     -0.3370
      2  C10        3.7650    6.2310   23.3190 C.2   292  INH292      0.2440
      3  O4         4.5690    6.1290   22.3870 O.2   292  INH292     -0.2710
      4  C11        2.6610    5.2390   23.7110 C.3   292  INH292      0.1860
      5  C12        2.3330    5.6520   25.1560 C.3   292  INH292      0.0550
      6  C13        2.6470    7.1530   25.1870 C.3   292  INH292      0.1290
      7  C8         4.5860    8.4310   24.0750 C.3   292  INH292      0.1750
      8  C9         4.2330    9.4310   25.1930 C.3   292  INH292      0.0420
      9  C7         6.0940    8.1300   24.0360 C.2   292  INH292      0.2420
     10  N2         6.8460    8.5100   22.9410 N.am  292  INH292     -0.3450
     11  O3         6.5150    7.5480   25.0330 O.2   292  INH292     -0.2710
     12  C3         6.1690    9.2150   21.8430 C.3   292  INH292      0.1460
     13  C2         6.2360   10.7300   21.9590 C.3   292  INH292      0.1510
     14  N1         6.0080   11.3260   20.6530 N.3   292  INH292     -0.3180
     15  H4         5.1160   11.2930   20.2030 H     292  INH292      0.1720
     16  S1         7.3820   12.1000   19.9210 S.O2  292  INH292      0.2220
     17  C1         7.0760   13.8470   20.0520 C.3   292  INH292      0.1850
     18  O2         8.5200   11.7120   20.6800 O.2   292  INH292     -0.2060
     19  O1         7.3170   11.6800   18.5670 O.2   292  INH292     -0.2060
     20  C4         8.3000    8.2390   22.7310 C.3   292  INH292      0.0790
     21  C6         8.6560    8.2450   21.2280 C.3   292  INH292      0.0320
     22  C5         9.1730    9.2670   23.4590 C.3   292  INH292      0.0320
     23  N4         2.9650    3.8250   23.5470 N.3   292  INH292     -0.3010
     24  H25        3.3210    3.2830   24.3080 H     292  INH292      0.1730
     25  S2         2.6940    3.1120   22.0020 S.O2  292  INH292      0.2590
     26  O6         2.2060    4.0610   21.0730 O.2   292  INH292     -0.2010
     27  O5         1.9280    1.9640   22.3340 O.2   292  INH292     -0.2010
     28  C14        4.3120    2.6880   21.3900 C.ar  292  INH292      0.0800
     29  C20        4.4320    2.4240   20.0280 C.ar  292  INH292      0.0370
     30  C19        5.7240    2.0970   19.4970 C.ar  292  INH292     -0.0240
     31  C17        6.8210    2.0590   20.3970 C.ar  292  INH292     -0.0240
     32  C21        5.8960    1.7960   18.1410 C.ar  292  INH292      0.0140
     33  C16        6.6570    2.3160   21.7690 C.ar  292  INH292      0.0140
     34  C18        8.0990    1.7350   19.9120 C.ar  292  INH292      0.0360
     35  C15        5.3870    2.6450   22.2820 C.ar  292  INH292      0.0260
     36  C23        8.2630    1.4520   18.5620 C.ar  292  INH292      0.0340
     37  C22        7.1820    1.4810   17.6390 C.ar  292  INH292      0.0240
     38 Cl1         9.8780    1.0950   18.0300 Cl    292  INH292     -0.0840
@<TRIPOS>BOND
     1    37    32   ar
     2    37    36   ar
     3    38    36    1
     4    32    30   ar
     5    36    34   ar
     6    19    16    2
     7    30    29   ar
     8    30    31   ar
     9    34    31   ar
    10    16    17    1
    11    16    14    1
    12    16    18    2
    13    29    28   ar
    14    15    14    1
    15    31    33   ar
    16    14    13    1
    17    26    25    2
    18    21    20    1
    19    28    25    1
    20    28    35   ar
    21    33    35   ar
    22    12    13    1
    23    12    10    1
    24    25    27    2
    25    25    23    1
    26     3     2    2
    27    20    10    1
    28    20    22    1
    29    10     9   am
    30     2     4    1
    31     2     1   am
    32    23     4    1
    33    23    24    1
    34     4     5    1
    35     9     7    1
    36     9    11    2
    37     7     1    1
    38     7     8    1
    39     1     6    1
    40     5     6    1
