@<TRIPOS>MOLECULE
/tmp/ewbell/vina_2j4i_2j4i_lig/vina/vina3.pdbqt
 38 40 0 0 0
SMALL
GASTEIGER

@<TRIPOS>ATOM
      1  N3         5.5150    6.5190   19.3830 N.am  292  INH292     -0.3370
      2  C10        5.8070    7.2790   20.4650 C.2   292  INH292      0.2440
      3  O4         6.0260    6.8370   21.5970 O.2   292  INH292     -0.2710
      4  C11        5.8280    8.7470   20.0150 C.3   292  INH292      0.1860
      5  C12        5.9520    8.6320   18.4870 C.3   292  INH292      0.0550
      6  C13        5.2610    7.3010   18.1640 C.3   292  INH292      0.1290
      7  C8         5.3300    5.0770   19.4600 C.3   292  INH292      0.1750
      8  C9         3.9640    4.7140   18.8470 C.3   292  INH292      0.0420
      9  C7         6.4680    4.2420   18.8490 C.2   292  INH292      0.2420
     10  N2         7.4010    3.6410   19.6710 N.am  292  INH292     -0.3450
     11  O3         6.4430    4.1830   17.6220 O.2   292  INH292     -0.2710
     12  C3         7.2600    3.8100   21.1240 C.3   292  INH292      0.1460
     13  C2         6.1990    2.9120   21.7420 C.3   292  INH292      0.1510
     14  N1         5.3870    3.6860   22.6650 N.3   292  INH292     -0.3180
     15  H4         5.6880    4.5690   23.0250 H     292  INH292      0.1720
     16  S1         3.8600    2.9830   23.1070 S.O2  292  INH292      0.2220
     17  C1         4.1320    1.2260   23.1460 C.3   292  INH292      0.1850
     18  O2         3.5370    3.4890   24.3970 O.2   292  INH292     -0.2060
     19  O1         3.0070    3.3340   22.0280 O.2   292  INH292     -0.2060
     20  C4         8.5910    2.8520   19.2290 C.3   292  INH292      0.0790
     21  C6         8.1660    1.4950   18.6250 C.3   292  INH292      0.0320
     22  C5         9.4240    3.6240   18.1990 C.3   292  INH292      0.0320
     23  N4         6.8290    9.6040   20.6340 N.3   292  INH292     -0.3010
     24  H25        7.7460    9.6890   20.2460 H     292  INH292      0.1730
     25  S2         6.3880   10.4700   22.0570 S.O2  292  INH292      0.2590
     26  O6         5.0350   10.2380   22.4050 O.2   292  INH292     -0.2010
     27  O5         6.8440   11.7810   21.7620 O.2   292  INH292     -0.2010
     28  C14        7.3170    9.7130   23.3750 C.ar  292  INH292      0.0800
     29  C20        8.7040    9.8150   23.3200 C.ar  292  INH292      0.0370
     30  C19        9.4840    9.2330   24.3740 C.ar  292  INH292     -0.0240
     31  C17        8.7930    8.5780   25.4270 C.ar  292  INH292     -0.0240
     32  C21       10.8830    9.2810   24.3540 C.ar  292  INH292      0.0140
     33  C16        7.3910    8.4840   25.4390 C.ar  292  INH292      0.0140
     34  C18        9.5250    7.9910   26.4720 C.ar  292  INH292      0.0360
     35  C15        6.6310    9.0650   24.4050 C.ar  292  INH292      0.0260
     36  C23       10.9130    8.0570   26.4510 C.ar  292  INH292      0.0340
     37  C22       11.6300    8.7040   25.4090 C.ar  292  INH292      0.0240
     38 Cl1        11.7490    7.3390   27.7950 Cl    292  INH292     -0.0840
@<TRIPOS>BOND
     1    11     9    2
     2     6     5    1
     3     6     1    1
     4    22    20    1
     5     5     4    1
     6    21    20    1
     7     8     7    1
     8     9     7    1
     9     9    10   am
    10    20    10    1
    11     1     7    1
    12     1     2   am
    13    10    12    1
    14     4     2    1
    15     4    23    1
    16    24    23    1
    17     2     3    2
    18    23    25    1
    19    12    13    1
    20    13    14    1
    21    27    25    2
    22    19    16    2
    23    25    26    2
    24    25    28    1
    25    14    15    1
    26    14    16    1
    27    16    17    1
    28    16    18    2
    29    29    28   ar
    30    29    30   ar
    31    28    35   ar
    32    32    30   ar
    33    32    37   ar
    34    30    31   ar
    35    35    33   ar
    36    37    36   ar
    37    31    33   ar
    38    31    34   ar
    39    36    34   ar
    40    36    38    1
