@<TRIPOS>MOLECULE
/tmp/ewbell/vina_2p3t_2p3t_lig/vina/vina3.pdbqt
 41 44 0 0 0
SMALL
GASTEIGER

@<TRIPOS>ATOM
      1  C11        4.2190    6.8530   22.0910 C.ar  291  INH291      0.0840
      2  C12        3.8020    6.3900   23.3720 C.ar  291  INH291      0.0970
      3  C14        3.6290    7.3030   24.4320 C.ar  291  INH291      0.0630
      4  C15        3.8640    8.6720   24.2360 C.ar  291  INH291      0.0370
      5 Cl2         3.6900    9.7830   25.5580 Cl    291  INH291     -0.0840
      6  C16        4.2630    9.1360   22.9780 C.ar  291  INH291      0.0430
      7  C17        4.4420    8.2460   21.9030 C.ar  291  INH291      0.0630
      8  N4         4.4500    5.9780   21.0750 N.am  291  INH291     -0.3190
      9  C10        5.5540    5.1930   21.0470 C.2   291  INH291      0.2640
     10  O1         6.4310    5.1960   21.9200 O.2   291  INH291     -0.2670
     11  H10        3.7880    5.9130   20.3280 H     291  INH291      0.1690
     12  C9         5.7060    4.2550   19.8310 C.ar  291  INH291      0.0950
     13  C7         6.6860    4.2660   18.8220 C.ar  291  INH291      0.0650
     14  C6         6.5240    3.2120   17.8570 C.ar  291  INH291     -0.0100
     15 Cl1         8.0010    5.4020   18.7430 Cl    291  INH291     -0.0820
     16  C8         5.4450    2.4160   18.1320 C.ar  291  INH291      0.0610
     17  S1         4.6970    2.9840   19.5240 S.2   291  INH291     -0.0940
     18  C5         7.4800    3.0050   16.6570 C.3   291  INH291      0.1870
     19  N3         8.6120    2.1110   16.9910 N.pl3 291  INH291     -0.1880
     20  C2         8.9100    0.9860   16.3700 C.3   291  INH291      0.6790
     21  N1         8.1960    0.4370   15.3840 N.3   291  INH291     -0.2300
     22  N2        10.0320    0.4960   16.8810 N.pl3 291  INH291     -0.2010
     23  C1         6.9650    1.0810   14.9000 C.3   291  INH291      0.1650
     24  H4         8.5100   -0.4460   14.9590 H     291  INH291      0.1770
     25  C3        10.4280    1.3480   17.8410 C.2   291  INH291      0.1240
     26  H2        10.5040   -0.3640   16.5980 H     291  INH291      0.1830
     27  C4         9.5430    2.3560   17.9090 C.2   291  INH291      0.1270
     28  C18        4.8560    8.8250   20.5260 C.2   291  INH291      0.2590
     29  N5         6.1390    9.2240   20.4520 N.am  291  INH291     -0.3090
     30  H16        6.4620    9.6310   19.5980 H     291  INH291      0.1700
     31  O3         4.0410    8.9140   19.6040 O.2   291  INH291     -0.2670
     32  C19        7.0110    9.1010   21.4740 C.2   291  INH291      0.1070
     33  N6         7.5110    7.8790   21.8180 N.pl3 291  INH291     -0.3510
     34  C23        8.3960    7.7280   22.8180 C.2   291  INH291      0.1130
     35  H6         7.2030    7.0550   21.3020 H     291  INH291      0.1660
     36  C22        8.8350    8.8450   23.5490 C.2   291  INH291      0.0490
     37  C21        8.3440   10.1140   23.2170 C.3   291  INH291      0.0290
     38 Cl3         9.9250    8.6530   24.8880 Cl    291  INH291     -0.0830
     39  C20        7.4230   10.2440   22.1690 C.2   291  INH291      0.0500
     40  O2         3.5690    5.0600   23.5870 O.3   291  INH291     -0.3540
     41  C13        2.1660    4.8130   23.7900 C.3   291  INH291      0.2100
@<TRIPOS>BOND
     1    23    21    1
     2    24    21    1
     3    21    20    1
     4    20    22    1
     5    20    19    1
     6    26    22    1
     7    18    19    1
     8    18    14    1
     9    22    25    1
    10    19    27    1
    11    25    27    2
    12    14    16   ar
    13    14    13   ar
    14    16    17   ar
    15    15    13    1
    16    13    12   ar
    17    17    12   ar
    18    30    29    1
    19    31    28    2
    20    12     9    1
    21    11     8    1
    22    29    28   am
    23    29    32    1
    24    28     7    1
    25     9     8   am
    26     9    10    2
    27     8     1    1
    28    35    33    1
    29    32    33    1
    30    32    39    2
    31    33    34    1
    32     7     1   ar
    33     7     6   ar
    34     1     2   ar
    35    39    37    1
    36    34    36    2
    37     6     4   ar
    38    37    36    1
    39     2    40    1
    40     2     3   ar
    41    36    38    1
    42    40    41    1
    43     4     3   ar
    44     4     5    1
