@<TRIPOS>MOLECULE
/tmp/ewbell/vina_2p3t_2p3t_lig/vina/vina2.pdbqt
 41 44 0 0 0
SMALL
GASTEIGER

@<TRIPOS>ATOM
      1  C11        5.1280    6.8650   23.6810 C.ar  291  INH291      0.0840
      2  C12        5.9480    7.9250   24.1630 C.ar  291  INH291      0.0970
      3  C14        5.3730    8.9890   24.8900 C.ar  291  INH291      0.0630
      4  C15        3.9940    9.0100   25.1460 C.ar  291  INH291      0.0370
      5 Cl2         3.2880   10.3440   26.0040 Cl    291  INH291     -0.0840
      6  C16        3.1840    7.9660   24.6860 C.ar  291  INH291      0.0430
      7  C17        3.7330    6.8930   23.9580 C.ar  291  INH291      0.0630
      8  N4         5.6570    5.8640   22.9260 N.am  291  INH291     -0.3190
      9  C10        5.8120    5.9880   21.5850 C.2   291  INH291      0.2640
     10  O1         5.4960    6.9950   20.9400 O.2   291  INH291     -0.2670
     11  H10        5.9400    5.0150   23.3720 H     291  INH291      0.1690
     12  C9         6.4080    4.7750   20.8430 C.ar  291  INH291      0.0950
     13  C7         7.4590    4.7390   19.9080 C.ar  291  INH291      0.0650
     14  C6         7.7650    3.4120   19.4430 C.ar  291  INH291     -0.0100
     15 Cl1         8.3480    6.1350   19.3760 Cl    291  INH291     -0.0820
     16  C8         6.9640    2.4620   20.0170 C.ar  291  INH291      0.0610
     17  S1         5.9000    3.2200   21.0720 S.2   291  INH291     -0.0940
     18  C5         8.8860    3.1080   18.4200 C.3   291  INH291      0.1870
     19  N3         8.3470    2.7180   17.0970 N.pl3 291  INH291     -0.1880
     20  C2         8.8100    1.7450   16.3370 C.3   291  INH291      0.6790
     21  N1         9.8840    1.0010   16.6060 N.3   291  INH291     -0.2300
     22  N2         8.0330    1.6280   15.2670 N.pl3 291  INH291     -0.2010
     23  C1        10.6660    1.2270   17.8330 C.3   291  INH291      0.1650
     24  H4        10.1700    0.2610   15.9500 H     291  INH291      0.1770
     25  C3         7.0690    2.5570   15.3810 C.2   291  INH291      0.1240
     26  H2         8.1470    0.9600   14.5050 H     291  INH291      0.1830
     27  C4         7.2640    3.2360   16.5230 C.2   291  INH291      0.1270
     28  C18        2.7900    5.7520   23.5020 C.2   291  INH291      0.2590
     29  N5         1.8920    6.1110   22.5670 N.am  291  INH291     -0.3090
     30  H16        1.2360    5.4260   22.2490 H     291  INH291      0.1700
     31  O3         2.8740    4.6230   23.9940 O.2   291  INH291     -0.2670
     32  C19        1.8320    7.3500   22.0370 C.2   291  INH291      0.1070
     33  N6         2.7270    7.7430   21.0840 N.pl3 291  INH291     -0.3510
     34  C23        2.6800    8.9620   20.5240 C.2   291  INH291      0.1130
     35  H6         3.4530    7.0900   20.7890 H     291  INH291      0.1660
     36  C22        1.6940    9.8830   20.9140 C.2   291  INH291      0.0490
     37  C21        0.7580    9.5090   21.8860 C.3   291  INH291      0.0290
     38 Cl3         1.6670   11.4880   20.2470 Cl    291  INH291     -0.0830
     39  C20        0.8270    8.2300   22.4540 C.2   291  INH291      0.0500
     40  O2         7.2940    7.9270   23.9240 O.3   291  INH291     -0.3540
     41  C13        7.9930    8.6650   24.9420 C.3   291  INH291      0.2100
@<TRIPOS>BOND
     1    26    22    1
     2    22    25    1
     3    22    20    1
     4    25    27    2
     5    24    21    1
     6    20    21    1
     7    20    19    1
     8    27    19    1
     9    21    23    1
    10    19    18    1
    11    18    14    1
    12    15    13    1
    13    14    13   ar
    14    14    16   ar
    15    13    12   ar
    16    16    17   ar
    17    38    36    1
    18    34    36    2
    19    34    33    1
    20    35    33    1
    21    12    17   ar
    22    12     9    1
    23    36    37    1
    24    10     9    2
    25    33    32    1
    26     9     8   am
    27    37    39    1
    28    32    39    2
    29    32    29    1
    30    30    29    1
    31    29    28   am
    32     8    11    1
    33     8     1    1
    34    28     7    1
    35    28    31    2
    36     1     7   ar
    37     1     2   ar
    38    40     2    1
    39    40    41    1
    40     7     6   ar
    41     2     3   ar
    42     6     4   ar
    43     3     4   ar
    44     4     5    1
