@<TRIPOS>MOLECULE
/tmp/ewbell/vina_2p3t_2p3t_lig/vina/vina4.pdbqt
 41 44 0 0 0
SMALL
GASTEIGER

@<TRIPOS>ATOM
      1  C11        5.6870    8.5180   20.0640 C.ar  291  INH291      0.0840
      2  C12        5.1100    7.2960   20.5150 C.ar  291  INH291      0.0970
      3  C14        5.8770    6.1120   20.5240 C.ar  291  INH291      0.0630
      4  C15        7.2110    6.1280   20.0920 C.ar  291  INH291      0.0370
      5 Cl2         8.1360    4.6590   20.0660 Cl    291  INH291     -0.0840
      6  C16        7.7890    7.3270   19.6590 C.ar  291  INH291      0.0430
      7  C17        7.0450    8.5210   19.6400 C.ar  291  INH291      0.0630
      8  N4         4.9420    9.6540   19.9910 N.am  291  INH291     -0.3190
      9  C10        4.2440    9.9790   18.8770 C.2   291  INH291      0.2640
     10  O1         4.2170    9.2910   17.8490 O.2   291  INH291     -0.2670
     11  H10        4.9100   10.2660   20.7820 H     291  INH291      0.1690
     12  C9         3.4530   11.3030   18.9170 C.ar  291  INH291      0.0950
     13  C7         3.7060   12.5050   18.2320 C.ar  291  INH291      0.0650
     14  C6         2.7280   13.5280   18.4940 C.ar  291  INH291     -0.0100
     15 Cl1         5.0340   12.7520   17.1370 Cl    291  INH291     -0.0820
     16  C8         1.7530   13.1070   19.3580 C.ar  291  INH291      0.0610
     17  S1         2.0730   11.5180   19.7970 S.2   291  INH291     -0.0940
     18  C5         2.7790   14.9360   17.8530 C.3   291  INH291      0.1870
     19  N3         3.9300   15.7320   18.3390 N.pl3 291  INH291     -0.1880
     20  C2         4.7060   16.4930   17.5920 C.3   291  INH291      0.6790
     21  N1         4.6220   16.6120   16.2650 N.3   291  INH291     -0.2300
     22  N2         5.5770   17.1190   18.3740 N.pl3 291  INH291     -0.2010
     23  C1         3.6060   15.8650   15.5060 C.3   291  INH291      0.1650
     24  H4         5.2740   17.2340   15.7670 H     291  INH291      0.1770
     25  C3         5.3210   16.7260   19.6340 C.2   291  INH291      0.1240
     26  H2         6.3010   17.7720   18.0750 H     291  INH291      0.1830
     27  C4         4.2940   15.8620   19.6120 C.2   291  INH291      0.1270
     28  C18        7.7490    9.8220   19.1790 C.2   291  INH291      0.2590
     29  N5         8.4680   10.4360   20.1360 N.am  291  INH291     -0.3090
     30  H16        8.9260   11.2960   19.9090 H     291  INH291      0.1700
     31  O3         7.6200   10.2390   18.0250 O.2   291  INH291     -0.2670
     32  C19        8.6030    9.9490   21.3870 C.2   291  INH291      0.1070
     33  N6         9.7020    9.2190   21.7340 N.pl3 291  INH291     -0.3510
     34  C23        9.8730    8.7380   22.9760 C.2   291  INH291      0.1130
     35  H6        10.4150    9.0320   21.0290 H     291  INH291      0.1660
     36  C22        8.9050    8.9760   23.9670 C.2   291  INH291      0.0490
     37  C21        7.7680    9.7260   23.6430 C.3   291  INH291      0.0290
     38 Cl3         9.0820    8.3000   25.5580 Cl    291  INH291     -0.0830
     39  C20        7.6140   10.2180   22.3400 C.2   291  INH291      0.0500
     40  O2         3.8100    7.2560   20.9390 O.3   291  INH291     -0.3540
     41  C13        3.7430    7.1270   22.3700 C.3   291  INH291      0.2100
@<TRIPOS>BOND
     1    23    21    1
     2    24    21    1
     3    21    20    1
     4    15    13    1
     5    20    19    1
     6    20    22    1
     7    10     9    2
     8    18    19    1
     9    18    14    1
    10    31    28    2
    11    26    22    1
    12    13    14   ar
    13    13    12   ar
    14    19    27    1
    15    22    25    1
    16    14    16   ar
    17     9    12    1
    18     9     8   am
    19    12    17   ar
    20    28     7    1
    21    28    29   am
    22    16    17   ar
    23    27    25    2
    24     7     6   ar
    25     7     1   ar
    26     6     4   ar
    27    30    29    1
    28     8     1    1
    29     8    11    1
    30     1     2   ar
    31     5     4    1
    32     4     3   ar
    33    29    32    1
    34     2     3   ar
    35     2    40    1
    36    40    41    1
    37    35    33    1
    38    32    33    1
    39    32    39    2
    40    33    34    1
    41    39    37    1
    42    34    36    2
    43    37    36    1
    44    36    38    1
