@<TRIPOS>MOLECULE
/tmp/ewbell/vina_2p3t_2p3t_lig/vina/vina1.pdbqt
 41 44 0 0 0
SMALL
GASTEIGER

@<TRIPOS>ATOM
      1  C11        4.9120    4.2230   20.5470 C.ar  291  INH291      0.0840
      2  C12        4.5540    2.9340   21.0380 C.ar  291  INH291      0.0970
      3  C14        4.0550    1.9540   20.1550 C.ar  291  INH291      0.0630
      4  C15        3.9080    2.2390   18.7890 C.ar  291  INH291      0.0370
      5 Cl2         3.2520    1.0410   17.7170 Cl    291  INH291     -0.0840
      6  C16        4.2680    3.4980   18.2970 C.ar  291  INH291      0.0430
      7  C17        4.7680    4.4930   19.1570 C.ar  291  INH291      0.0630
      8  N4         5.3360    5.1990   21.3950 N.am  291  INH291     -0.3190
      9  C10        4.4650    6.0120   22.0400 C.2   291  INH291      0.2640
     10  O1         3.2350    5.9440   21.9220 O.2   291  INH291     -0.2670
     11  H10        6.3170    5.3180   21.5460 H     291  INH291      0.1690
     12  C9         5.0750    7.0880   22.9610 C.ar  291  INH291      0.0950
     13  C7         6.2670    7.8180   22.8000 C.ar  291  INH291      0.0650
     14  C6         6.5020    8.7670   23.8570 C.ar  291  INH291     -0.0100
     15 Cl1         7.3490    7.6470   21.4500 Cl    291  INH291     -0.0820
     16  C8         5.5070    8.7570   24.7960 C.ar  291  INH291      0.0610
     17  S1         4.3600    7.6140   24.3530 S.2   291  INH291     -0.0940
     18  C5         7.7390    9.6970   23.9020 C.3   291  INH291      0.1870
     19  N3         8.8640    9.0960   24.6550 N.pl3 291  INH291     -0.1880
     20  C2        10.0800    9.5970   24.7450 C.3   291  INH291      0.6790
     21  N1        10.5130   10.6910   24.1130 N.3   291  INH291     -0.2300
     22  N2        10.7990    8.8410   25.5640 N.pl3 291  INH291     -0.2010
     23  C1         9.6150   11.4510   23.2270 C.3   291  INH291      0.1650
     24  H4        11.4830   11.0070   24.2460 H     291  INH291      0.1770
     25  C3         9.9940    7.8500   25.9860 C.2   291  INH291      0.1240
     26  H2        11.7740    8.9840   25.8250 H     291  INH291      0.1830
     27  C4         8.7870    8.0110   25.4190 C.2   291  INH291      0.1270
     28  C18        5.1780    5.8580   18.5480 C.2   291  INH291      0.2590
     29  N5         6.4200    5.8870   18.0300 N.am  291  INH291     -0.3090
     30  H16        6.7540    6.7460   17.6450 H     291  INH291      0.1700
     31  O3         4.4080    6.8210   18.5720 O.2   291  INH291     -0.2670
     32  C19        7.2350    4.8120   18.0050 C.2   291  INH291      0.1070
     33  N6         7.1170    3.8720   17.0230 N.pl3 291  INH291     -0.3510
     34  C23        7.9270    2.8030   16.9610 C.2   291  INH291      0.1130
     35  H6         6.3910    3.9850   16.3150 H     291  INH291      0.1660
     36  C22        8.9330    2.6200   17.9240 C.2   291  INH291      0.0490
     37  C21        9.0840    3.5700   18.9420 C.3   291  INH291      0.0290
     38 Cl3         9.9410    1.2040   17.8940 Cl    291  INH291     -0.0830
     39  C20        8.2270    4.6770   18.9840 C.2   291  INH291      0.0500
     40  O2         4.6870    2.6360   22.3660 O.3   291  INH291     -0.3540
     41  C13        4.0960    1.3590   22.6630 C.3   291  INH291      0.2100
@<TRIPOS>BOND
     1    35    33    1
     2    34    33    1
     3    34    36    2
     4    33    32    1
     5    30    29    1
     6     5     4    1
     7    38    36    1
     8    36    37    1
     9    32    29    1
    10    32    39    2
    11    29    28   am
    12     6     4   ar
    13     6     7   ar
    14    28    31    2
    15    28     7    1
    16     4     3   ar
    17    37    39    1
    18     7     1   ar
    19     3     2   ar
    20     1     2   ar
    21     1     8    1
    22     2    40    1
    23     8    11    1
    24     8     9   am
    25    15    13    1
    26    10     9    2
    27     9    12    1
    28    40    41    1
    29    13    12   ar
    30    13    14   ar
    31    12    17   ar
    32    23    21    1
    33    14    18    1
    34    14    16   ar
    35    18    19    1
    36    21    24    1
    37    21    20    1
    38    17    16   ar
    39    19    20    1
    40    19    27    1
    41    20    22    1
    42    27    25    2
    43    22    26    1
    44    22    25    1
