@<TRIPOS>MOLECULE
/tmp/ewbell/vina_2p3t_2p3t_lig/vina/vina5.pdbqt
 41 44 0 0 0
SMALL
GASTEIGER

@<TRIPOS>ATOM
      1  C11        4.6010    3.7190   19.0600 C.ar  291  INH291      0.0840
      2  C12        4.0800    2.4760   19.5200 C.ar  291  INH291      0.0970
      3  C14        3.3410    1.6510   18.6470 C.ar  291  INH291      0.0630
      4  C15        3.1140    2.0470   17.3200 C.ar  291  INH291      0.0370
      5 Cl2         2.1670    1.0460   16.2640 Cl    291  INH291     -0.0840
      6  C16        3.6320    3.2610   16.8570 C.ar  291  INH291      0.0430
      7  C17        4.3730    4.1010   17.7080 C.ar  291  INH291      0.0630
      8  N4         5.2630    4.5540   19.9060 N.am  291  INH291     -0.3190
      9  C10        4.6120    5.4870   20.6420 C.2   291  INH291      0.2640
     10  O1         3.3870    5.6620   20.6140 O.2   291  INH291     -0.2670
     11  H10        6.2570    4.4760   19.9880 H     291  INH291      0.1690
     12  C9         5.4800    6.3810   21.5510 C.ar  291  INH291      0.0950
     13  C7         6.7340    6.9600   21.2850 C.ar  291  INH291      0.0650
     14  C6         7.2330    7.7650   22.3690 C.ar  291  INH291     -0.0100
     15 Cl1         7.6040    6.7760   19.7910 Cl    291  INH291     -0.0820
     16  C8         6.3720    7.7980   23.4320 C.ar  291  INH291      0.0610
     17  S1         5.0260    6.8630   23.0640 S.2   291  INH291     -0.0940
     18  C5         8.5860    8.5150   22.3160 C.3   291  INH291      0.1870
     19  N3         8.4190    9.9490   21.9890 N.pl3 291  INH291     -0.1880
     20  C2         8.9680   10.9540   22.6430 C.3   291  INH291      0.6790
     21  N1         9.7070   10.8420   23.7490 N.3   291  INH291     -0.2300
     22  N2         8.6700   12.0880   22.0210 N.pl3 291  INH291     -0.2010
     23  C1         9.9720    9.5230   24.3460 C.3   291  INH291      0.1650
     24  H4        10.0960   11.6870   24.1900 H     291  INH291      0.1770
     25  C3         7.9170   11.7610   20.9560 C.2   291  INH291      0.1240
     26  H2         8.9570   13.0260   22.2980 H     291  INH291      0.1830
     27  C4         7.7620   10.4280   20.9360 C.2   291  INH291      0.1270
     28  C18        4.9470    5.4190   17.1280 C.2   291  INH291      0.2590
     29  N5         6.1720    5.3020   16.5850 N.am  291  INH291     -0.3090
     30  H16        6.6100    6.1220   16.2160 H     291  INH291      0.1700
     31  O3         4.3100    6.4730   17.1960 O.2   291  INH291     -0.2670
     32  C19        6.8400    4.1320   16.5120 C.2   291  INH291      0.1070
     33  N6         6.7120    3.3250   15.4190 N.pl3 291  INH291     -0.3510
     34  C23        7.3790    2.1640   15.3100 C.2   291  INH291      0.1130
     35  H6         6.0900    3.6110   14.6630 H     291  INH291      0.1660
     36  C22        8.2380    1.7420   16.3380 C.2   291  INH291      0.0490
     37  C21        8.3950    2.5500   17.4710 C.3   291  INH291      0.0290
     38 Cl3         9.0520    0.2090   16.2380 Cl    291  INH291     -0.0830
     39  C20        7.6890    3.7570   17.5600 C.2   291  INH291      0.0500
     40  O2         4.2870    2.0710   20.8100 O.3   291  INH291     -0.3540
     41  C13        3.0550    1.6390   21.4130 C.3   291  INH291      0.2100
@<TRIPOS>BOND
     1    35    33    1
     2    34    33    1
     3    34    36    2
     4    33    32    1
     5    30    29    1
     6    38    36    1
     7     5     4    1
     8    36    37    1
     9    32    29    1
    10    32    39    2
    11    29    28   am
    12     6     4   ar
    13     6     7   ar
    14    28    31    2
    15    28     7    1
    16     4     3   ar
    17    37    39    1
    18     7     1   ar
    19     3     2   ar
    20     1     2   ar
    21     1     8    1
    22     2    40    1
    23    15    13    1
    24     8    11    1
    25     8     9   am
    26    10     9    2
    27     9    12    1
    28    40    41    1
    29    27    25    2
    30    27    19    1
    31    25    22    1
    32    13    12   ar
    33    13    14   ar
    34    12    17   ar
    35    19    18    1
    36    19    20    1
    37    22    26    1
    38    22    20    1
    39    18    14    1
    40    14    16   ar
    41    20    21    1
    42    17    16   ar
    43    21    24    1
    44    21    23    1
