@<TRIPOS>MOLECULE
./ligand/1yc1_lig.pdb
 42 45 0 0 0
SMALL
GASTEIGER

@<TRIPOS>ATOM
      1  C1         2.2240   35.5070   -4.3740 C.ar  213  INH213     -0.0083
      2  C2         2.9190   36.2840   -3.4530 C.ar  213  INH213      0.1668
      3  O1         4.2550   36.5260   -3.3050 O.3   213  INH213     -0.4526
      4  C3         4.3940   37.3790   -2.2370 C.3   213  INH213      0.2332
      5  O2         3.1580   37.6640   -1.7130 O.3   213  INH213     -0.4526
      6  C4         2.2370   36.9820   -2.4570 C.ar  213  INH213      0.1663
      7  C5         0.8510   36.9120   -2.3570 C.ar  213  INH213     -0.0156
      8  C6         0.1620   36.1260   -3.2760 C.ar  213  INH213     -0.0502
      9  C7         0.8380   35.4280   -4.2760 C.ar  213  INH213     -0.0098
     10  C8         0.1490   34.5980   -5.1600 C.ar  213  INH213      0.0419
     11  C9         0.0490   34.6960   -6.5420 C.ar  213  INH213      0.1551
     12  C10        0.6670   35.7460   -7.4670 C.2   213  INH213      0.4045
     13  O3         0.7830   35.4750   -8.6620 O.co2 213  INH213     -0.2389
     14  O4         1.0430   36.8370   -7.0350 O.co2 213  INH213     -0.2389
     15  N1        -0.7540   33.7190   -6.9620 N.ar  213  INH213     -0.2697
     16  C11       -0.6350   33.4940   -4.8430 C.ar  213  INH213      0.1045
     17  N2        -1.1390   33.0470   -5.9970 N.ar  213  INH213     -0.1724
     18  C12       -0.7130   32.9160   -3.5760 C.ar  213  INH213      0.0446
     19  C13        0.4280   32.7190   -2.7970 C.ar  213  INH213     -0.0424
     20  C14        0.3370   32.2030   -1.5060 C.ar  213  INH213     -0.0054
     21  C15        1.6230   31.8700   -0.7440 C.3   213  INH213     -0.0271
     22  C16        1.9390   30.3770   -0.8750 C.3   213  INH213     -0.0611
     23  C17       -0.9120   31.9090   -0.9690 C.ar  213  INH213      0.1235
     24  O5        -1.0080   31.6250    0.3610 O.3   213  INH213     -0.5064
     25  C18       -2.0550   32.0720   -1.7480 C.ar  213  INH213      0.0222
     26  C19       -1.9510   32.5650   -3.0490 C.ar  213  INH213      0.1296
     27  O6        -3.0640   32.6950   -3.8160 O.3   213  INH213     -0.5060
     28  H1         2.7530   34.9720   -5.1550 H     213  INH213      0.0661
     29  H2         4.8730   38.3110   -2.5720 H     213  INH213      0.1166
     30  H3         5.0170   36.9020   -1.4660 H     213  INH213      0.1166
     31  H4         0.3210   37.4560   -1.5830 H     213  INH213      0.0655
     32  H5        -0.9180   36.0550   -3.2130 H     213  INH213      0.0625
     33  H6        -1.0150   33.5490   -7.9440 H     213  INH213      0.1892
     34  H7         1.4010   32.9720   -3.2030 H     213  INH213      0.0629
     35  H8         1.4920   32.1230    0.3190 H     213  INH213      0.0312
     36  H9         2.4550   32.4560   -1.1610 H     213  INH213      0.0312
     37  H10        2.8640   30.1480   -0.3250 H     213  INH213      0.0233
     38  H11        2.0720   30.1220   -1.9370 H     213  INH213      0.0233
     39  H12        1.1090   29.7880   -0.4580 H     213  INH213      0.0233
     40  H13       -1.9140   31.4460    0.5820 H     213  INH213      0.2921
     41  H14       -3.0270   31.8150   -1.3430 H     213  INH213      0.0691
     42  H15       -3.8250   32.4170   -3.3190 H     213  INH213      0.2922
@<TRIPOS>BOND
     1     1    28    1
     2     1     9   ar
     3     1     2   ar
     4     2     6   ar
     5     2     3    1
     6     3     4    1
     7     4    30    1
     8     4    29    1
     9     4     5    1
    10     5     6    1
    11     6     7   ar
    12     7    31    1
    13     7     8   ar
    14     8    32    1
    15     8     9   ar
    16     9    10    1
    17    10    16   ar
    18    10    11   ar
    19    11    15   ar
    20    11    12    1
    21    12    14   ar
    22    12    13   ar
    23    15    33    1
    24    15    17   ar
    25    16    17   ar
    26    16    18    1
    27    18    26   ar
    28    18    19   ar
    29    19    34    1
    30    19    20   ar
    31    20    23   ar
    32    20    21    1
    33    21    36    1
    34    21    35    1
    35    21    22    1
    36    22    39    1
    37    22    38    1
    38    22    37    1
    39    23    25   ar
    40    23    24    1
    41    24    40    1
    42    25    41    1
    43    25    26   ar
    44    26    27    1
    45    27    42    1
