@<TRIPOS>MOLECULE
/tmp/ewbell/vina_1yc1_1yc1_lig/vina/vina5.pdbqt
 32 35 0 0 0
SMALL
GASTEIGER

@<TRIPOS>ATOM
      1  C8         4.1410   37.6260   -0.8310 C.2   213  INH213      0.0380
      2  C9         4.6170   36.5610   -0.0770 C.2   213  INH213      0.1350
      3  N1         4.0740   36.6470    1.1370 N.pl3 213  INH213     -0.2930
      4  C11        3.3140   38.3180    0.0470 C.3   213  INH213      0.0740
      5  N2         3.3370   37.6390    1.1980 N.3   213  INH213     -0.2980
      6  H2         2.8090   37.9070    2.0290 H     213  INH213      0.1870
      7  C12        2.7310   39.5550   -0.2230 C.ar  213  INH213      0.0270
      8  C13        2.3530   39.9110   -1.5180 C.ar  213  INH213      0.0260
      9  C14        1.7100   41.1210   -1.7730 C.ar  213  INH213     -0.0240
     10  C17        1.4100   41.9760   -0.7180 C.ar  213  INH213      0.0740
     11  C18        1.8100   41.6450    0.5750 C.ar  213  INH213      0.0740
     12  C19        2.4760   40.4440    0.8160 C.ar  213  INH213      0.0810
     13  H6         4.2430   35.9860    1.9090 H     213  INH213      0.1870
     14  C7         4.3920   37.9250   -2.1700 C.ar  213  INH213     -0.0180
     15  C1         3.6390   37.2860   -3.1510 C.ar  213  INH213      0.0520
     16  C2         3.9300   37.5340   -4.4880 C.ar  213  INH213      0.1050
     17  C4         4.9490   38.4190   -4.8390 C.ar  213  INH213      0.1050
     18  O1         3.3770   37.0440   -5.6370 O.3   213  INH213     -0.3230
     19  O2         5.0040   38.4810   -6.2030 O.3   213  INH213     -0.3230
     20  C5         5.7010   39.0650   -3.8640 C.ar  213  INH213      0.0400
     21  C3         4.0380   37.6340   -6.6870 C.3   213  INH213      0.3520
     22  C6         5.4110   38.8070   -2.5270 C.ar  213  INH213      0.0150
     23  C10        5.5440   35.4260   -0.5150 C.2   213  INH213      0.1960
     24  O4         5.1160   34.2840   -0.6940 O.2   213  INH213     -0.6450
     25  O3         6.7350   35.6790   -0.6890 O.3   213  INH213     -0.7720
     26  H          7.2660   35.1060   -1.2080 H     213  INH213      0.1670
     27  O6         2.8910   40.1380    2.0720 O.3   213  INH213     -0.3600
     28  H15        3.7500   39.7360    2.0320 H     213  INH213      0.2170
     29  C15        1.4440   41.5330   -3.2240 C.3   213  INH213      0.0370
     30  C16        1.4800   40.3020   -4.1340 C.3   213  INH213      0.0100
     31  O5         0.5850   43.0380   -0.9430 O.3   213  INH213     -0.3600
     32  H13        0.6480   43.6480   -0.2170 H     213  INH213      0.2170
@<TRIPOS>BOND
     1    21    19    1
     2    21    18    1
     3    19    17    1
     4    18    16    1
     5    17    16   ar
     6    17    20   ar
     7    16    15   ar
     8    30    29    1
     9    20    22   ar
    10    29     9    1
    11    15    14   ar
    12    22    14   ar
    13    14     1    1
    14     9     8   ar
    15     9    10   ar
    16     8     7   ar
    17    26    25    1
    18    31    10    1
    19    31    32    1
    20     1     2    2
    21     1     4    1
    22    10    11   ar
    23    24    23    2
    24    25    23    1
    25    23     2    1
    26     7     4    1
    27     7    12   ar
    28     2     3    1
    29     4     5    1
    30    11    12   ar
    31    12    27    1
    32     3     5    1
    33     3    13    1
    34     5     6    1
    35    28    27    1
