@<TRIPOS>MOLECULE
/tmp/ewbell/vina_1yc1_1yc1_lig/vina/vina1.pdbqt
 32 35 0 0 0
SMALL
GASTEIGER

@<TRIPOS>ATOM
      1  C8         5.1660   37.0990   -2.8880 C.2   213  INH213      0.0380
      2  C9         6.3270   37.3060   -2.1550 C.2   213  INH213      0.1350
      3  N1         6.5770   36.1920   -1.4670 N.pl3 213  INH213     -0.2930
      4  C11        4.7790   35.8070   -2.5490 C.3   213  INH213      0.0740
      5  N2         5.7010   35.3500   -1.6970 N.3   213  INH213     -0.2980
      6  H2         5.6840   34.4170   -1.2870 H     213  INH213      0.1870
      7  C12        3.5720   35.2180   -2.9270 C.ar  213  INH213      0.0270
      8  C13        2.9620   35.5290   -4.1430 C.ar  213  INH213      0.0260
      9  C14        1.7920   34.8880   -4.5460 C.ar  213  INH213     -0.0240
     10  C17        1.2390   33.8980   -3.7410 C.ar  213  INH213      0.0740
     11  C18        1.8220   33.6000   -2.5110 C.ar  213  INH213      0.0740
     12  C19        2.9780   34.2660   -2.1060 C.ar  213  INH213      0.0810
     13  H6         7.3810   36.0540   -0.8370 H     213  INH213      0.1870
     14  C7         4.5410   37.9610   -3.7900 C.ar  213  INH213     -0.0180
     15  C1         3.4950   38.7590   -3.3380 C.ar  213  INH213      0.0520
     16  C2         2.8280   39.5710   -4.2490 C.ar  213  INH213      0.1050
     17  C4         3.2110   39.5950   -5.5900 C.ar  213  INH213      0.1050
     18  O1         1.7770   40.4290   -4.0910 O.3   213  INH213     -0.3230
     19  O2         2.4030   40.4810   -6.2450 O.3   213  INH213     -0.3230
     20  C5         4.2590   38.8030   -6.0470 C.ar  213  INH213      0.0400
     21  C3         1.5240   40.9880   -5.3200 C.3   213  INH213      0.3520
     22  C6         4.9170   37.9860   -5.1330 C.ar  213  INH213      0.0150
     23  C10        7.2370   38.5360   -2.1420 C.2   213  INH213      0.1960
     24  O4         6.7700   39.6760   -2.1360 O.2   213  INH213     -0.6450
     25  O3         8.4540   38.3610   -2.1360 O.3   213  INH213     -0.7720
     26  H          8.9610   38.5620   -2.9000 H     213  INH213      0.1670
     27  O6         3.5280   33.9940   -0.8940 O.3   213  INH213     -0.3600
     28  H15        2.9810   33.3690   -0.4320 H     213  INH213      0.2170
     29  C15        1.0810   35.3640   -5.8160 C.3   213  INH213      0.0370
     30  C16        0.7400   36.8520   -5.7000 C.3   213  INH213      0.0100
     31  O5         0.2360   33.1230   -4.2440 O.3   213  INH213     -0.3600
     32  H13       -0.5900   33.3790   -3.8510 H     213  INH213      0.2170
@<TRIPOS>BOND
     1    19    17    1
     2    19    21    1
     3    20    17   ar
     4    20    22   ar
     5    29    30    1
     6    29     9    1
     7    17    16   ar
     8    21    18    1
     9    22    14   ar
    10     9     8   ar
    11     9    10   ar
    12    16    18    1
    13    16    15   ar
    14    31    32    1
    15    31    10    1
    16     8     7   ar
    17    14    15   ar
    18    14     1    1
    19    10    11   ar
    20     7     4    1
    21     7    12   ar
    22    26    25    1
    23     1     4    1
    24     1     2    2
    25     4     5    1
    26    11    12   ar
    27     2    23    1
    28     2     3    1
    29    23    24    2
    30    23    25    1
    31    12    27    1
    32     5     3    1
    33     5     6    1
    34     3    13    1
    35    27    28    1
