@<TRIPOS>MOLECULE
/tmp/ewbell/vina_1yc1_1yc1_lig/vina/vina3.pdbqt
 32 35 0 0 0
SMALL
GASTEIGER

@<TRIPOS>ATOM
      1  C8         1.0750   35.7390   -4.4920 C.2   213  INH213      0.0380
      2  C9         0.4620   35.7650   -5.7380 C.2   213  INH213      0.1350
      3  N1         0.3870   37.0360   -6.1280 N.pl3 213  INH213     -0.2930
      4  C11        1.3180   37.0790   -4.2090 C.3   213  INH213      0.0740
      5  N2         0.8760   37.7720   -5.2620 N.3   213  INH213     -0.2980
      6  H2         0.9340   38.7870   -5.3420 H     213  INH213      0.1870
      7  C12        1.7860   37.5570   -2.9850 C.ar  213  INH213      0.0270
      8  C13        2.6510   36.8020   -2.1940 C.ar  213  INH213      0.0260
      9  C14        3.1690   37.3110   -1.0040 C.ar  213  INH213     -0.0240
     10  C17        2.8450   38.6060   -0.6120 C.ar  213  INH213      0.0740
     11  C18        1.9580   39.3580   -1.3780 C.ar  213  INH213      0.0740
     12  C19        1.4250   38.8300   -2.5530 C.ar  213  INH213      0.0810
     13  H6        -0.0180   37.3590   -7.0190 H     213  INH213      0.1870
     14  C7         1.4120   34.6350   -3.7090 C.ar  213  INH213     -0.0180
     15  C1         0.4550   34.1070   -2.8480 C.ar  213  INH213      0.0520
     16  C2         0.8080   33.0470   -2.0200 C.ar  213  INH213      0.1050
     17  C4         2.0960   32.5130   -2.0640 C.ar  213  INH213      0.1050
     18  O1         0.0910   32.3570   -1.0850 O.3   213  INH213     -0.3230
     19  O2         2.1570   31.4850   -1.1660 O.3   213  INH213     -0.3230
     20  C5         3.0550   33.0310   -2.9270 C.ar  213  INH213      0.0400
     21  C3         0.9250   31.3950   -0.5670 C.3   213  INH213      0.3520
     22  C6         2.6990   34.0980   -3.7460 C.ar  213  INH213      0.0150
     23  C10       -0.0060   34.5840   -6.5900 C.2   213  INH213      0.1960
     24  O4        -0.6000   33.6280   -6.0880 O.2   213  INH213     -0.6450
     25  O3         0.2240   34.6090   -7.7990 O.3   213  INH213     -0.7720
     26  H          0.0110   35.3720   -8.3010 H     213  INH213      0.1670
     27  O6         0.5380   39.5540   -3.2830 O.3   213  INH213     -0.3600
     28  H15        0.6040   39.3060   -4.1970 H     213  INH213      0.2170
     29  C15        3.9970   36.3940   -0.0980 C.3   213  INH213      0.0370
     30  C16        4.9570   35.5520   -0.9420 C.3   213  INH213      0.0100
     31  O5         3.5300   39.1730    0.4220 O.3   213  INH213     -0.3600
     32  H13        2.9600   39.7740    0.8870 H     213  INH213      0.2170
@<TRIPOS>BOND
     1    26    25    1
     2    25    23    1
     3    13     3    1
     4    23    24    2
     5    23     2    1
     6     3     2    1
     7     3     5    1
     8     2     1    2
     9     6     5    1
    10     5     4    1
    11     1     4    1
    12     1    14    1
    13     4     7    1
    14    28    27    1
    15    22    14   ar
    16    22    20   ar
    17    14    15   ar
    18    27    12    1
    19     7    12   ar
    20     7     8   ar
    21    20    17   ar
    22    15    16   ar
    23    12    11   ar
    24     8     9   ar
    25    17    16   ar
    26    17    19    1
    27    16    18    1
    28    11    10   ar
    29    19    21    1
    30    18    21    1
    31     9    10   ar
    32     9    29    1
    33    30    29    1
    34    10    31    1
    35    31    32    1
