@<TRIPOS>MOLECULE
/tmp/ewbell/vina_1yc1_1yc1_lig/vina/vina4.pdbqt
 32 35 0 0 0
SMALL
GASTEIGER

@<TRIPOS>ATOM
      1  C8         2.2840   37.9410   -3.9370 C.2   213  INH213      0.0380
      2  C9         2.3590   39.2620   -4.3600 C.2   213  INH213      0.1350
      3  N1         1.3350   39.4840   -5.1830 N.pl3 213  INH213     -0.2930
      4  C11        1.1630   37.4410   -4.5910 C.3   213  INH213      0.0740
      5  N2         0.6620   38.4530   -5.3050 N.3   213  INH213     -0.2980
      6  H2        -0.1760   38.3840   -5.8820 H     213  INH213      0.1870
      7  C12        0.7790   36.1000   -4.5910 C.ar  213  INH213      0.0270
      8  C13        1.0210   35.2760   -3.4920 C.ar  213  INH213      0.0260
      9  C14        0.5770   33.9560   -3.4700 C.ar  213  INH213     -0.0240
     10  C17       -0.1490   33.4570   -4.5470 C.ar  213  INH213      0.0740
     11  C18       -0.3700   34.2610   -5.6630 C.ar  213  INH213      0.0740
     12  C19        0.1020   35.5730   -5.6850 C.ar  213  INH213      0.0810
     13  H6         1.1330   40.3820   -5.6470 H     213  INH213      0.1870
     14  C7         3.1080   37.2680   -3.0360 C.ar  213  INH213     -0.0180
     15  C1         2.8430   37.3790   -1.6740 C.ar  213  INH213      0.0520
     16  C2         3.7010   36.7610   -0.7710 C.ar  213  INH213      0.1050
     17  C4         4.8000   36.0310   -1.2220 C.ar  213  INH213      0.1050
     18  O1         3.6930   36.7180    0.5950 O.3   213  INH213     -0.3230
     19  O2         5.4510   35.5290   -0.1310 O.3   213  INH213     -0.3230
     20  C5         5.0670   35.9110   -2.5820 C.ar  213  INH213      0.0400
     21  C3         4.7680   35.9550    0.9810 C.3   213  INH213      0.3520
     22  C6         4.2100   36.5380   -3.4810 C.ar  213  INH213      0.0150
     23  C10        3.3680   40.3360   -3.9480 C.2   213  INH213      0.1960
     24  O4         4.5450   40.2790   -4.3070 O.2   213  INH213     -0.6450
     25  O3         2.9750   41.2660   -3.2450 O.3   213  INH213     -0.7720
     26  H          3.4530   41.5070   -2.4750 H     213  INH213      0.1670
     27  O6        -0.0900   36.3440   -6.7860 O.3   213  INH213     -0.3600
     28  H15        0.2490   37.2170   -6.6230 H     213  INH213      0.2170
     29  C15        0.9900   33.0480   -2.3070 C.3   213  INH213      0.0370
     30  C16        2.4920   33.1860   -2.0430 C.3   213  INH213      0.0100
     31  O5        -0.7710   32.2500   -4.4210 O.3   213  INH213     -0.3600
     32  H13       -1.0210   31.9320   -5.2800 H     213  INH213      0.2170
@<TRIPOS>BOND
     1    27    28    1
     2    27    12    1
     3     6     5    1
     4    12    11   ar
     5    12     7   ar
     6    11    10   ar
     7    13     3    1
     8     5     3    1
     9     5     4    1
    10    32    31    1
    11     3     2    1
    12     4     7    1
    13     4     1    1
    14     7     8   ar
    15    10    31    1
    16    10     9   ar
    17     2    23    1
    18     2     1    2
    19    24    23    2
    20    23    25    1
    21     1    14    1
    22     8     9   ar
    23    22    14   ar
    24    22    20   ar
    25     9    29    1
    26    25    26    1
    27    14    15   ar
    28    20    17   ar
    29    29    30    1
    30    15    16   ar
    31    17    16   ar
    32    17    19    1
    33    16    18    1
    34    19    21    1
    35    18    21    1
