@<TRIPOS>MOLECULE
/tmp/ewbell/vina_1yc1_1yc1_lig/vina/vina2.pdbqt
 32 35 0 0 0
SMALL
GASTEIGER

@<TRIPOS>ATOM
      1  C8         4.0160   36.0800   -2.9980 C.2   213  INH213      0.0380
      2  C9         5.1610   36.0780   -2.2110 C.2   213  INH213      0.1350
      3  N1         5.2900   34.8620   -1.6830 N.pl3 213  INH213     -0.2930
      4  C11        3.5100   34.7920   -2.8570 C.3   213  INH213      0.0740
      5  N2         4.3560   34.1400   -2.0550 N.3   213  INH213     -0.2980
      6  H2         4.2460   33.1640   -1.7820 H     213  INH213      0.1870
      7  C12        2.2740   34.3700   -3.3480 C.ar  213  INH213      0.0270
      8  C13        1.7400   34.9010   -4.5220 C.ar  213  INH213      0.0260
      9  C14        0.5370   34.4280   -5.0440 C.ar  213  INH213     -0.0240
     10  C17       -0.1280   33.3880   -4.4040 C.ar  213  INH213      0.0740
     11  C18        0.3800   32.8700   -3.2150 C.ar  213  INH213      0.0740
     12  C19        1.5700   33.3680   -2.6870 C.ar  213  INH213      0.0810
     13  H6         6.0540   34.5660   -1.0580 H     213  INH213      0.1870
     14  C7         3.5010   37.1100   -3.7840 C.ar  213  INH213     -0.0180
     15  C1         2.5150   37.9330   -3.2470 C.ar  213  INH213      0.0520
     16  C2         1.9540   38.9200   -4.0500 C.ar  213  INH213      0.1050
     17  C4         2.3830   39.0920   -5.3660 C.ar  213  INH213      0.1050
     18  O1         0.9780   39.8410   -3.7960 O.3   213  INH213     -0.3230
     19  O2         1.6790   40.1300   -5.9080 O.3   213  INH213     -0.3230
     20  C5         3.3720   38.2770   -5.9070 C.ar  213  INH213      0.0400
     21  C3         0.8180   40.5850   -4.9400 C.3   213  INH213      0.3520
     22  C6         3.9240   37.2850   -5.1010 C.ar  213  INH213      0.0150
     23  C10        6.1690   37.2090   -1.9990 C.2   213  INH213      0.1960
     24  O4         7.3320   37.1120   -2.3940 O.2   213  INH213     -0.6450
     25  O3         5.7900   38.2270   -1.4210 O.3   213  INH213     -0.7720
     26  H          4.9200   38.2740   -1.0750 H     213  INH213      0.1670
     27  O6         2.0480   32.8830   -1.5120 O.3   213  INH213     -0.3600
     28  H15        1.5450   32.1170   -1.2590 H     213  INH213      0.2170
     29  C15       -0.0820   35.1380   -6.2520 C.3   213  INH213      0.0370
     30  C16       -0.2890   36.6220   -5.9380 C.3   213  INH213      0.0100
     31  O5        -1.1720   32.7830   -5.0390 O.3   213  INH213     -0.3600
     32  H13       -1.8020   32.4800   -4.3960 H     213  INH213      0.2170
@<TRIPOS>BOND
     1    29    30    1
     2    29     9    1
     3    19    17    1
     4    19    21    1
     5    20    17   ar
     6    20    22   ar
     7    17    16   ar
     8    22    14   ar
     9     9     8   ar
    10     9    10   ar
    11    31    10    1
    12    31    32    1
    13    21    18    1
    14     8     7   ar
    15    10    11   ar
    16    16    18    1
    17    16    15   ar
    18    14    15   ar
    19    14     1    1
    20     7     4    1
    21     7    12   ar
    22    11    12   ar
    23     1     4    1
    24     1     2    2
    25     4     5    1
    26    12    27    1
    27    24    23    2
    28     2    23    1
    29     2     3    1
    30     5     6    1
    31     5     3    1
    32    23    25    1
    33     3    13    1
    34    27    28    1
    35    25    26    1
