@<TRIPOS>MOLECULE
./ligand/2nsj_lig.pdb
 33 34 0 0 0
SMALL
GASTEIGER

@<TRIPOS>ATOM
      1  P1        15.5640  -11.8810   -9.3190 P.3   1313  INH1313     0.5320
      2  O1        14.3970  -11.6720   -8.2320 O.3   1313  INH1313    -0.1145
      3  O2        16.5400  -12.9080   -8.8910 O.3   1313  INH1313    -0.1145
      4  O3        16.2460  -10.4420   -9.5460 O.2   1313  INH1313    -0.2224
      5  N1        14.6400  -14.3110  -15.0520 N.ar  1313  INH1313    -0.2891
      6  C1        14.5680  -14.5100  -16.3640 C.ar  1313  INH1313     0.1327
      7  C2        15.4910  -15.4970  -16.6800 C.ar  1313  INH1313     0.1911
      8  N2        16.1150  -15.8450  -15.5590 N.ar  1313  INH1313    -0.2271
      9  C3        15.5900  -15.1150  -14.5760 C.ar  1313  INH1313     0.1003
     10  N3        13.8350  -13.8080  -17.2220 N.pl3 1313  INH1313    -0.3425
     11  C4        15.6850  -16.1390  -18.0540 C.2   1313  INH1313     0.4078
     12  O4        14.9580  -15.7400  -18.9890 O.co2 1313  INH1313    -0.2387
     13  O5        16.5450  -17.0400  -18.1630 O.co2 1313  INH1313    -0.2387
     14  O6        14.8440  -12.2660  -10.7060 O.3   1313  INH1313    -0.2809
     15  C5        13.1750  -14.2940  -13.1020 C.3   1313  INH1313     0.1285
     16  O7        12.1660  -15.1680  -13.6140 O.3   1313  INH1313    -0.3847
     17  C6        12.5560  -13.1890  -12.2440 C.3   1313  INH1313     0.1135
     18  O8        11.1950  -12.9750  -12.6260 O.3   1313  INH1313    -0.3864
     19  C7        14.0040  -11.3230  -11.3740 C.3   1313  INH1313     0.0880
     20  C8        13.3950  -11.9630  -12.6220 C.3   1313  INH1313     0.1134
     21  O9        14.4280  -12.4540  -13.4930 O.3   1313  INH1313    -0.3456
     22  C9        13.7390  -13.4570  -14.2480 C.3   1313  INH1313     0.1664
     23  H1        15.8940  -15.1680  -13.5320 H     1313  INH1313     0.1030
     24  H2        13.8490  -14.0440  -18.2250 H     1313  INH1313     0.1437
     25  H3        13.2530  -13.0280  -16.8840 H     1313  INH1313     0.1437
     26  H4        13.9480  -14.8630  -12.5650 H     1313  INH1313     0.0665
     27  H5        11.5590  -14.6700  -14.1480 H     1313  INH1313     0.2101
     28  H6        12.6230  -13.4180  -11.1700 H     1313  INH1313     0.0647
     29  H7        10.7030  -13.7780  -12.5040 H     1313  INH1313     0.2100
     30  H8        14.6010  -10.4470  -11.6670 H     1313  INH1313     0.0592
     31  H9        13.1980  -11.0070  -10.6950 H     1313  INH1313     0.0592
     32  H10       12.7740  -11.2220  -13.1460 H     1313  INH1313     0.0647
     33  H11       12.9570  -13.0230  -14.8880 H     1313  INH1313     0.0866
@<TRIPOS>BOND
     1    12    11   ar
     2    24    10    1
     3    13    11   ar
     4    11     7    1
     5    10    25    1
     6    10     6    1
     7     7     6   ar
     8     7     8   ar
     9     6     5   ar
    10     8     9   ar
    11     5     9   ar
    12     5    22    1
    13    33    22    1
    14     9    23    1
    15    22    21    1
    16    22    15    1
    17    27    16    1
    18    16    15    1
    19    21    20    1
    20    32    20    1
    21    15    26    1
    22    15    17    1
    23    18    29    1
    24    18    17    1
    25    20    17    1
    26    20    19    1
    27    17    28    1
    28    30    19    1
    29    19    14    1
    30    19    31    1
    31    14     1    1
    32     4     1    2
    33     1     3    1
    34     1     2    1
