@<TRIPOS>MOLECULE
/tmp/ewbell/vina_2nsj_2nsj_lig/vina/vina5.pdbqt
 30 31 0 0 0
SMALL
GASTEIGER

@<TRIPOS>ATOM
      1  C5        12.8110   -8.7970  -11.8380 C.3   1313  INH1313     0.1980
      2  C6        12.2610   -7.4640  -12.3500 C.3   1313  INH1313     0.1820
      3  C8        11.3260   -7.9010  -13.4830 C.3   1313  INH1313     0.1800
      4  O9        11.5050   -9.3220  -13.6070 O.3   1313  INH1313    -0.3530
      5  C9        11.6710   -9.7280  -12.2430 C.3   1313  INH1313     0.2620
      6  N1        12.1340  -11.1250  -12.0980 N.pl3 1313  INH1313    -0.2970
      7  C1        12.7910  -11.8330  -13.0110 C.2   1313  INH1313     0.1380
      8  N3        13.3550  -11.3530  -14.1140 N.pl3 1313  INH1313    -0.3830
      9  C2        12.8860  -13.1320  -12.5320 C.2   1313  INH1313     0.1510
     10  H2        13.8450  -11.9890  -14.7610 H     1313  INH1313     0.1570
     11  H3        13.3030  -10.3460  -14.3230 H     1313  INH1313     0.1570
     12  N2        12.3110  -13.1670  -11.3350 N.pl3 1313  INH1313    -0.3440
     13  C3        11.8590  -11.9410  -11.0800 C.3   1313  INH1313     0.1880
     14  H2        12.2310  -13.9810  -10.7250 H     1313  INH1313     0.1670
     15  C4        13.4590  -14.3290  -13.2900 C.2   1313  INH1313     0.1970
     16  O4        12.6600  -15.0520  -13.9240 O.2   1313  INH1313    -0.6450
     17  O5        14.6910  -14.5310  -13.2210 O.3   1313  INH1313    -0.7720
     18  H         15.0540  -14.9550  -12.4690 H     1313  INH1313     0.1670
     19  O7        12.9240   -8.7890  -10.4130 O.3   1313  INH1313    -0.3880
     20  H5        13.5210   -8.0990  -10.1480 H     1313  INH1313     0.2100
     21  O8        11.5020   -6.8190  -11.3240 O.3   1313  INH1313    -0.3900
     22  H7        10.7690   -7.3710  -11.0800 H     1313  INH1313     0.2100
     23  C7        11.6980   -7.1970  -14.7890 C.3   1313  INH1313     0.2150
     24  O6        12.0270   -5.8310  -14.5270 O.3   1313  INH1313    -0.2940
     25  P1        10.8900   -4.6920  -14.5820 P.3   1313  INH1313     0.3900
     26  O3        10.3260   -4.5420  -13.0840 O.2   1313  INH1313    -0.6320
     27  O2         9.8250   -5.0120  -15.5580 O.3   1313  INH1313    -0.3070
     28  H          9.8910   -4.4130  -16.3180 H     1313  INH1313     0.2220
     29  O1        11.6340   -3.3110  -14.9360 O.3   1313  INH1313    -0.3070
     30  H         11.0220   -2.7250  -15.4070 H     1313  INH1313     0.2220
@<TRIPOS>BOND
     1    28    27    1
     2    27    25    1
     3    30    29    1
     4    29    25    1
     5    23    24    1
     6    23     3    1
     7    10     8    1
     8    25    24    1
     9    25    26    2
    10    11     8    1
    11     8     7    1
    12    16    15    2
    13     4     3    1
    14     4     5    1
    15     3     2    1
    16    15    17    1
    17    15     9    1
    18    17    18    1
    19     7     9    2
    20     7     6    1
    21     9    12    1
    22     2     1    1
    23     2    21    1
    24     5     6    1
    25     5     1    1
    26     6    13    1
    27     1    19    1
    28    12    13    1
    29    12    14    1
    30    21    22    1
    31    19    20    1
