@<TRIPOS>MOLECULE
/tmp/ewbell/vina_2nsj_2nsj_lig/vina/vina2.pdbqt
 30 31 0 0 0
SMALL
GASTEIGER

@<TRIPOS>ATOM
      1  C5        14.6480  -12.3650  -12.4110 C.3   1313  INH1313     0.1980
      2  C6        13.5450  -11.5000  -11.8000 C.3   1313  INH1313     0.1820
      3  C8        12.4030  -11.6510  -12.8120 C.3   1313  INH1313     0.1800
      4  O9        12.9480  -12.4180  -13.8990 O.3   1313  INH1313    -0.3530
      5  C9        13.8010  -13.3460  -13.2190 C.3   1313  INH1313     0.2620
      6  N1        14.6940  -14.0980  -14.1280 N.pl3 1313  INH1313    -0.2970
      7  C1        14.4070  -14.4850  -15.3670 C.2   1313  INH1313     0.1380
      8  N3        13.3750  -14.0720  -16.0940 N.pl3 1313  INH1313    -0.3830
      9  C2        15.4500  -15.2940  -15.7950 C.2   1313  INH1313     0.1510
     10  H2        13.2420  -14.4340  -17.0500 H     1313  INH1313     0.1570
     11  H3        12.7090  -13.3900  -15.7050 H     1313  INH1313     0.1570
     12  N2        16.3500  -15.3490  -14.8180 N.pl3 1313  INH1313    -0.3440
     13  C3        15.8800  -14.6170  -13.8100 C.3   1313  INH1313     0.1880
     14  H2        17.2340  -15.8580  -14.8370 H     1313  INH1313     0.1670
     15  C4        15.5070  -16.0630  -17.1140 C.2   1313  INH1313     0.1970
     16  O4        16.4750  -16.8320  -17.2970 O.2   1313  INH1313    -0.6450
     17  O5        14.5930  -15.8680  -17.9450 O.3   1313  INH1313    -0.7720
     18  H         14.8010  -15.5760  -18.8100 H     1313  INH1313     0.1670
     19  O7        15.3540  -13.0840  -11.3960 O.3   1313  INH1313    -0.3880
     20  H5        16.2290  -12.7260  -11.3070 H     1313  INH1313     0.2100
     21  O8        13.1410  -12.0380  -10.5380 O.3   1313  INH1313    -0.3900
     22  H7        12.3500  -12.5500  -10.6520 H     1313  INH1313     0.2100
     23  C7        11.9360  -10.2800  -13.3030 C.3   1313  INH1313     0.2150
     24  O6        13.0380   -9.5660  -13.8670 O.3   1313  INH1313    -0.2940
     25  P1        12.8330   -8.0840  -14.4620 P.3   1313  INH1313     0.3900
     26  O3        13.7570   -7.1080  -13.5790 O.2   1313  INH1313    -0.6320
     27  O2        11.4110   -7.6720  -14.4600 O.3   1313  INH1313    -0.3070
     28  H         11.2370   -7.1120  -13.6870 H     1313  INH1313     0.2220
     29  O1        13.4540   -8.0900  -15.9460 O.3   1313  INH1313    -0.3070
     30  H         12.7410   -8.1930  -16.5950 H     1313  INH1313     0.2220
@<TRIPOS>BOND
     1    18    17    1
     2    17    15    1
     3    16    15    2
     4    15     9    1
     5    10     8    1
     6    30    29    1
     7     8    11    1
     8     8     7    1
     9    29    25    1
    10     9     7    2
    11     9    12    1
    12     7     6    1
    13    14    12    1
    14    12    13    1
    15    25    27    1
    16    25    24    1
    17    25    26    2
    18    27    28    1
    19     6    13    1
    20     6     5    1
    21     4     5    1
    22     4     3    1
    23    24    23    1
    24    23     3    1
    25     5     1    1
    26     3     2    1
    27     1     2    1
    28     1    19    1
    29     2    21    1
    30    19    20    1
    31    22    21    1
