@<TRIPOS>MOLECULE
/tmp/ewbell/vina_2nsj_2nsj_lig/vina/vina3.pdbqt
 30 31 0 0 0
SMALL
GASTEIGER

@<TRIPOS>ATOM
      1  C5        13.2330  -13.0420  -13.5420 C.3   1313  INH1313     0.1980
      2  C6        13.6580  -14.2900  -14.3170 C.3   1313  INH1313     0.1820
      3  C8        15.1260  -14.4540  -13.9070 C.3   1313  INH1313     0.1800
      4  O9        15.4340  -13.3040  -13.1020 O.3   1313  INH1313    -0.3530
      5  C9        14.2170  -13.1050  -12.3750 C.3   1313  INH1313     0.2620
      6  N1        14.1670  -11.8160  -11.6510 N.pl3 1313  INH1313    -0.2970
      7  C1        14.4490  -11.6270  -10.3660 C.2   1313  INH1313     0.1380
      8  N3        15.0450  -12.5000   -9.5600 N.pl3 1313  INH1313    -0.3830
      9  C2        14.1200  -10.3130  -10.0630 C.2   1313  INH1313     0.1510
     10  H2        15.2190  -12.2550   -8.5740 H     1313  INH1313     0.1570
     11  H3        15.3330  -13.4200   -9.9210 H     1313  INH1313     0.1570
     12  N2        13.6790   -9.7380  -11.1770 N.pl3 1313  INH1313    -0.3440
     13  C3        13.7140  -10.6610  -12.1360 C.3   1313  INH1313     0.1880
     14  H2        13.3710   -8.7700  -11.2770 H     1313  INH1313     0.1670
     15  C4        14.1630   -9.6730   -8.6760 C.2   1313  INH1313     0.1970
     16  O4        14.6570   -8.5290   -8.5790 O.2   1313  INH1313    -0.6450
     17  O5        13.7220  -10.3360   -7.7110 O.3   1313  INH1313    -0.7720
     18  H         14.2830  -10.5450   -6.9920 H     1313  INH1313     0.1670
     19  O7        11.9020  -13.1820  -13.0390 O.3   1313  INH1313    -0.3880
     20  H5        11.6040  -12.3470  -12.6980 H     1313  INH1313     0.2100
     21  O8        12.9070  -15.4230  -13.8740 O.3   1313  INH1313    -0.3900
     22  H7        12.1060  -15.1270  -13.4580 H     1313  INH1313     0.2100
     23  C7        16.0270  -14.5030  -15.1420 C.3   1313  INH1313     0.2150
     24  O6        15.2340  -14.7120  -16.3120 O.3   1313  INH1313    -0.2940
     25  P1        15.2650  -16.1270  -17.0790 P.3   1313  INH1313     0.3900
     26  O3        14.2370  -17.0870  -16.3000 O.2   1313  INH1313    -0.6320
     27  O2        16.6300  -16.6960  -17.1470 O.3   1313  INH1313    -0.3070
     28  H         17.2710  -15.9840  -17.2930 H     1313  INH1313     0.2220
     29  O1        14.6450  -15.8760  -18.5420 O.3   1313  INH1313    -0.3070
     30  H         14.3210  -14.9650  -18.6040 H     1313  INH1313     0.2220
@<TRIPOS>BOND
     1    30    29    1
     2    29    25    1
     3    28    27    1
     4    27    25    1
     5    25    24    1
     6    25    26    2
     7    24    23    1
     8    23     3    1
     9     2     3    1
    10     2    21    1
    11     2     1    1
    12     3     4    1
    13    21    22    1
    14     1    19    1
    15     1     5    1
    16     4     5    1
    17    19    20    1
    18     5     6    1
    19    13     6    1
    20    13    12    1
    21     6     7    1
    22    14    12    1
    23    12     9    1
    24     7     9    2
    25     7     8    1
    26     9    15    1
    27    11     8    1
    28     8    10    1
    29    15    16    2
    30    15    17    1
    31    17    18    1
