@<TRIPOS>MOLECULE
/tmp/ewbell/vina_2nsj_2nsj_lig/vina/vina1.pdbqt
 30 31 0 0 0
SMALL
GASTEIGER

@<TRIPOS>ATOM
      1  C5        13.1590  -13.8850  -12.8280 C.3   1313  INH1313     0.1980
      2  C6        12.6190  -12.8060  -11.8870 C.3   1313  INH1313     0.1820
      3  C8        13.7120  -11.7330  -11.9460 C.3   1313  INH1313     0.1800
      4  O9        14.7660  -12.2980  -12.7450 O.3   1313  INH1313    -0.3530
      5  C9        14.0380  -13.0300  -13.7370 C.3   1313  INH1313     0.2620
      6  N1        14.8880  -13.9290  -14.5470 N.pl3 1313  INH1313    -0.2970
      7  C1        14.6090  -14.3880  -15.7630 C.2   1313  INH1313     0.1380
      8  N3        13.6440  -13.9460  -16.5620 N.pl3 1313  INH1313    -0.3830
      9  C2        15.5870  -15.3190  -16.0840 C.2   1313  INH1313     0.1510
     10  H2        13.5100  -14.3720  -17.4920 H     1313  INH1313     0.1570
     11  H3        13.0310  -13.1790  -16.2540 H     1313  INH1313     0.1570
     12  N2        16.4440  -15.3750  -15.0690 N.pl3 1313  INH1313    -0.3440
     13  C3        16.0090  -14.5240  -14.1410 C.3   1313  INH1313     0.1880
     14  H2        17.2770  -15.9600  -15.0120 H     1313  INH1313     0.1670
     15  C4        15.6160  -16.1950  -17.3350 C.2   1313  INH1313     0.1970
     16  O4        16.6110  -16.9330  -17.5050 O.2   1313  INH1313    -0.6450
     17  O5        14.6550  -16.1130  -18.1310 O.3   1313  INH1313    -0.7720
     18  H         14.4570  -16.8280  -18.7010 H     1313  INH1313     0.1670
     19  O7        12.1040  -14.4600  -13.6030 O.3   1313  INH1313    -0.3880
     20  H5        11.8500  -13.8540  -14.2880 H     1313  INH1313     0.2100
     21  O8        11.3960  -12.2730  -12.4020 O.3   1313  INH1313    -0.3900
     22  H7        10.7680  -12.9760  -12.5160 H     1313  INH1313     0.2100
     23  C7        14.2190  -11.4050  -10.5420 C.3   1313  INH1313     0.2150
     24  O6        15.3910  -12.1730  -10.2570 O.3   1313  INH1313    -0.2940
     25  P1        16.1670  -11.9910   -8.8590 P.3   1313  INH1313     0.3900
     26  O3        15.0370  -11.7480   -7.7410 O.2   1313  INH1313    -0.6320
     27  O2        17.1600  -10.8940   -8.9080 O.3   1313  INH1313    -0.3070
     28  H         17.9430  -11.1890   -9.3980 H     1313  INH1313     0.2220
     29  O1        16.8520  -13.4070   -8.5210 O.3   1313  INH1313    -0.3070
     30  H         16.1760  -14.0260   -8.2050 H     1313  INH1313     0.2220
@<TRIPOS>BOND
     1    18    17    1
     2    17    15    1
     3    16    15    2
     4    10     8    1
     5    15     9    1
     6     8    11    1
     7     8     7    1
     8     9     7    2
     9     9    12    1
    10     7     6    1
    11    12    14    1
    12    12    13    1
    13     6    13    1
    14     6     5    1
    15    20    19    1
    16     5     1    1
    17     5     4    1
    18    19     1    1
    19     1     2    1
    20     4     3    1
    21    22    21    1
    22    21     2    1
    23     3     2    1
    24     3    23    1
    25    23    24    1
    26    24    25    1
    27    28    27    1
    28    27    25    1
    29    25    29    1
    30    25    26    2
    31    29    30    1
