@<TRIPOS>MOLECULE
/tmp/ewbell/vina_2nsj_2nsj_lig/vina/vina4.pdbqt
 30 31 0 0 0
SMALL
GASTEIGER

@<TRIPOS>ATOM
      1  C5        14.5190  -12.2960  -12.3410 C.3   1313  INH1313     0.1980
      2  C6        13.3730  -11.5060  -11.7050 C.3   1313  INH1313     0.1820
      3  C8        12.2020  -11.7970  -12.6510 C.3   1313  INH1313     0.1800
      4  O9        12.7600  -12.5570  -13.7360 O.3   1313  INH1313    -0.3530
      5  C9        13.7250  -13.3780  -13.0690 C.3   1313  INH1313     0.2620
      6  N1        14.6360  -14.0850  -13.9950 N.pl3 1313  INH1313    -0.2970
      7  C1        14.3520  -14.4660  -15.2360 C.2   1313  INH1313     0.1380
      8  N3        13.3000  -14.0800  -15.9500 N.pl3 1313  INH1313    -0.3830
      9  C2        15.4200  -15.2310  -15.6840 C.2   1313  INH1313     0.1510
     10  H2        13.1710  -14.4350  -16.9100 H     1313  INH1313     0.1570
     11  H3        12.6140  -13.4280  -15.5460 H     1313  INH1313     0.1570
     12  N2        16.3290  -15.2680  -14.7150 N.pl3 1313  INH1313    -0.3440
     13  C3        15.8420  -14.5660  -13.6930 C.3   1313  INH1313     0.1880
     14  H2        17.2310  -15.7440  -14.7480 H     1313  INH1313     0.1670
     15  C4        15.4920  -15.9800  -17.0140 C.2   1313  INH1313     0.1970
     16  O4        16.4490  -16.7660  -17.1870 O.2   1313  INH1313    -0.6450
     17  O5        14.6030  -15.7530  -17.8630 O.3   1313  INH1313    -0.7720
     18  H         13.9340  -15.1230  -17.6830 H     1313  INH1313     0.1670
     19  O7        15.3350  -12.9080  -11.3400 O.3   1313  INH1313    -0.3880
     20  H5        15.3410  -12.3630  -10.5620 H     1313  INH1313     0.2100
     21  O8        13.0810  -12.0260  -10.4060 O.3   1313  INH1313    -0.3900
     22  H7        13.5890  -12.8150  -10.2600 H     1313  INH1313     0.2100
     23  C7        11.5910  -10.4930  -13.1660 C.3   1313  INH1313     0.2150
     24  O6        11.1110   -9.7140  -12.0680 O.3   1313  INH1313    -0.2940
     25  P1         9.7220  -10.0880  -11.3470 P.3   1313  INH1313     0.3900
     26  O3        10.1040  -10.9450  -10.0410 O.2   1313  INH1313    -0.6320
     27  O2         8.8000  -10.8130  -12.2500 O.3   1313  INH1313    -0.3070
     28  H          8.3230  -10.1760  -12.8040 H     1313  INH1313     0.2220
     29  O1         9.0860   -8.7070  -10.8220 O.3   1313  INH1313    -0.3070
     30  H          9.6230   -8.3590  -10.0930 H     1313  INH1313     0.2220
@<TRIPOS>BOND
     1    17    18    1
     2    17    15    1
     3    16    15    2
     4    15     9    1
     5    10     8    1
     6     8    11    1
     7     8     7    1
     8     9     7    2
     9     9    12    1
    10     7     6    1
    11    14    12    1
    12    12    13    1
    13     6    13    1
    14     6     5    1
    15     4     5    1
    16     4     3    1
    17    23     3    1
    18    23    24    1
    19     5     1    1
    20    28    27    1
    21     3     2    1
    22     1     2    1
    23     1    19    1
    24    27    25    1
    25    24    25    1
    26     2    21    1
    27    25    29    1
    28    25    26    2
    29    19    20    1
    30    29    30    1
    31    21    22    1
