@<TRIPOS>MOLECULE
./ligand/2ayr_lig.pdb
 69 73 0 0 0
SMALL
GASTEIGER

@<TRIPOS>ATOM
      1  C1        32.2070    0.4660   28.2400 C.ar  249  INH249     -0.0142
      2  C2        29.8570    1.3550   28.2530 C.ar  249  INH249     -0.0499
      3  C3        27.9180   -0.0290   27.6560 C.ar  249  INH249     -0.0109
      4  C4        28.2180   -2.4130   27.0040 C.ar  249  INH249     -0.0470
      5  C5        32.8720    1.6290   27.7200 C.ar  249  INH249     -0.0521
      6  C6        26.5200   -0.1610   27.4720 C.ar  249  INH249     -0.0124
      7  C7        32.6480   -3.1980   25.8070 C.ar  249  INH249     -0.0159
      8  C8        34.2670    1.8030   27.9250 C.ar  249  INH249     -0.0363
      9  C9        33.2880   -3.2900   24.5500 C.ar  249  INH249     -0.0165
     10  C10       31.9560   -1.3950   23.7080 C.ar  249  INH249     -0.0165
     11  C11       35.0090    0.8240   28.6360 C.ar  249  INH249      0.0879
     12  C12       32.9480   -2.3840   23.4780 C.ar  249  INH249      0.1210
     13  C13       30.2020   -1.0240   27.5980 C.ar  249  INH249      0.1438
     14  C14       30.7510    0.2590   28.0310 C.ar  249  INH249      0.0250
     15  C15       28.7900   -1.1620   27.4180 C.ar  249  INH249      0.0252
     16  O1        31.0320   -2.1570   27.3520 O.3   249  INH249     -0.4548
     17  C16       31.6570   -2.2140   26.0460 C.ar  249  INH249      0.1287
     18  C17       32.9800   -0.5030   28.9590 C.ar  249  INH249     -0.0521
     19  C18       28.4600    1.2130   28.0670 C.ar  249  INH249     -0.0531
     20  C19       26.8220   -2.5290   26.8260 C.ar  249  INH249     -0.0195
     21  C20       31.3180   -1.3050   24.9650 C.ar  249  INH249     -0.0159
     22  C21       34.3670   -0.3240   29.1540 C.ar  249  INH249     -0.0363
     23  C22       25.9730   -1.4110   27.0580 C.ar  249  INH249      0.1175
     24  O2        24.6510   -1.5330   26.8790 O.3   249  INH249     -0.5067
     25  S1        36.7580    1.0300   28.9080 S.O2  249  INH249     -0.0059
     26  O3        33.5370   -2.4060   22.1890 O.3   249  INH249     -0.4867
     27  C23       38.0420   -0.2180   28.5040 C.3   249  INH249      0.0596
     28  O4        36.9320    1.3850   30.3880 O.2   249  INH249     -0.1696
     29  O5        37.1800    2.3840   28.3060 O.2   249  INH249     -0.1696
     30  C24       34.2630   -3.5730   21.7600 C.3   249  INH249      0.1291
     31  C25       33.2780   -4.5520   21.0860 C.3   249  INH249      0.0031
     32  N1        32.5200   -4.1440   19.9020 N.4   249  INH249      0.2376
     33  C26       33.4010   -3.4750   18.9190 C.3   249  INH249     -0.0318
     34  C27       31.3630   -3.2510   20.2030 C.3   249  INH249     -0.0318
     35  C28       32.6540   -3.3240   17.5790 C.3   249  INH249     -0.0123
     36  C29       30.4990   -3.0460   18.9390 C.3   249  INH249     -0.0123
     37  C30       31.3680   -2.4930   17.7890 C.3   249  INH249     -0.0434
     38  H1        30.2570    2.3120   28.5690 H     249  INH249      0.0625
     39  H2        28.8590   -3.2690   26.8280 H     249  INH249      0.0626
     40  H3        32.3080    2.3750   27.1710 H     249  INH249      0.0624
     41  H4        25.8670    0.6870   27.6460 H     249  INH249      0.0660
     42  H5        32.9190   -3.8880   26.5980 H     249  INH249      0.0655
     43  H6        34.7650    2.6840   27.5380 H     249  INH249      0.0637
     44  H7        34.0440   -4.0500   24.3890 H     249  INH249      0.0655
     45  H8        31.6870   -0.7060   22.9160 H     249  INH249      0.0655
     46  H9        32.4930   -1.3850   29.3590 H     249  INH249      0.0624
     47  H10       27.8030    2.0580   28.2400 H     249  INH249      0.0624
     48  H11       26.3950   -3.4740   26.5110 H     249  INH249      0.0654
     49  H12       30.5620   -0.5440   25.1260 H     249  INH249      0.0655
     50  H13       34.9390   -1.0660   29.7000 H     249  INH249      0.0637
     51  H14       24.4500   -2.4200   26.6060 H     249  INH249      0.2921
     52  H15       39.0330    0.1740   28.7770 H     249  INH249      0.0468
     53  H16       38.0170   -0.4340   27.4260 H     249  INH249      0.0468
     54  H17       37.8450   -1.1420   29.0670 H     249  INH249      0.0468
     55  H18       34.7300   -4.0580   22.6300 H     249  INH249      0.0751
     56  H19       35.0430   -3.2800   21.0420 H     249  INH249      0.0751
     57  H20       32.5400   -4.8340   21.8510 H     249  INH249      0.0848
     58  H21       33.8620   -5.4380   20.7960 H     249  INH249      0.0848
     59  H22       32.1550   -4.9820   19.4780 H     249  INH249      0.2034
     60  H23       34.3070   -4.0800   18.7670 H     249  INH249      0.0814
     61  H24       33.6820   -2.4810   19.2960 H     249  INH249      0.0814
     62  H25       31.7380   -2.2760   20.5480 H     249  INH249      0.0814
     63  H26       30.7480   -3.7080   20.9920 H     249  INH249      0.0814
     64  H27       32.3870   -4.3200   17.1950 H     249  INH249      0.0317
     65  H28       33.3050   -2.8140   16.8540 H     249  INH249      0.0317
     66  H29       29.6920   -2.3320   19.1610 H     249  INH249      0.0317
     67  H30       30.0630   -4.0090   18.6350 H     249  INH249      0.0317
     68  H31       30.7790   -2.5100   16.8600 H     249  INH249      0.0269
     69  H32       31.6500   -1.4560   18.0250 H     249  INH249      0.0269
@<TRIPOS>BOND
     1     1    14    1
     2     1    18   ar
     3     1     5   ar
     4     2    14   ar
     5     2    38    1
     6     2    19   ar
     7     3    19   ar
     8     3    15   ar
     9     3     6   ar
    10     4    20   ar
    11     4    39    1
    12     4    15   ar
    13     5    40    1
    14     5     8   ar
    15     6    41    1
    16     6    23   ar
    17     7    17   ar
    18     7    42    1
    19     7     9   ar
    20     8    43    1
    21     8    11   ar
    22     9    44    1
    23     9    12   ar
    24    10    12   ar
    25    10    45    1
    26    10    21   ar
    27    11    25    1
    28    11    22   ar
    29    12    26    1
    30    13    15   ar
    31    13    16    1
    32    13    14   ar
    33    16    17    1
    34    17    21   ar
    35    18    22   ar
    36    18    46    1
    37    19    47    1
    38    20    23   ar
    39    20    48    1
    40    21    49    1
    41    22    50    1
    42    23    24    1
    43    24    51    1
    44    25    29    2
    45    25    28    2
    46    25    27    1
    47    26    30    1
    48    27    54    1
    49    27    53    1
    50    27    52    1
    51    30    56    1
    52    30    55    1
    53    30    31    1
    54    31    58    1
    55    31    57    1
    56    31    32    1
    57    32    59    1
    58    32    34    1
    59    32    33    1
    60    33    61    1
    61    33    60    1
    62    33    35    1
    63    34    36    1
    64    34    63    1
    65    34    62    1
    66    35    65    1
    67    35    64    1
    68    35    37    1
    69    36    37    1
    70    36    67    1
    71    36    66    1
    72    37    69    1
    73    37    68    1
