@<TRIPOS>MOLECULE
/tmp/ewbell/vina_2ayr_2ayr_lig/vina/vina4.pdbqt
 39 43 0 0 0
SMALL
GASTEIGER

@<TRIPOS>ATOM
      1  C2        35.3930    2.0930   17.4750 C.ar  249  INH249      0.0160
      2  C3        36.1790    2.9010   15.2930 C.ar  249  INH249     -0.0210
      3  C4        36.7620    1.2920   13.4840 C.ar  249  INH249      0.0180
      4  C6        36.5100    3.9770   14.4350 C.ar  249  INH249      0.0490
      5  C13       35.9770    0.4500   15.6950 C.ar  249  INH249      0.0980
      6  C14       35.5040    0.7300   17.0500 C.ar  249  INH249      0.0090
      7  C15       36.3060    1.5350   14.8240 C.ar  249  INH249      0.0090
      8  C18       35.7280    3.1630   16.6090 C.ar  249  INH249      0.0130
      9  C19       37.0880    2.3770   12.6400 C.ar  249  INH249      0.0370
     10  C22       36.9640    3.7150   13.1080 C.ar  249  INH249      0.0660
     11  O1        36.1170   -0.8820   15.2050 O.3   249  INH249     -0.3090
     12  C16       37.4570   -1.4320   15.2360 C.ar  249  INH249      0.0760
     13  C7        37.7860   -2.4760   14.3380 C.ar  249  INH249      0.0400
     14  C9        39.0800   -3.0460   14.3330 C.ar  249  INH249      0.0390
     15  C12       40.0980   -2.5790   15.2460 C.ar  249  INH249      0.0690
     16  C10       39.7770   -1.5330   16.1500 C.ar  249  INH249      0.0390
     17  C20       38.4840   -0.9640   16.1520 C.ar  249  INH249      0.0400
     18  O3        41.4180   -3.0920   15.3090 O.3   249  INH249     -0.3490
     19  C24       42.4730   -2.4260   14.5910 C.3   249  INH249      0.2030
     20  C25       43.8140   -3.1090   14.9300 C.3   249  INH249      0.2610
     21  N1        44.7110   -2.5300   15.9320 N.4   249  INH249     -0.0690
     22  H22       44.4780   -2.9490   16.8180 H     249  INH249      0.2800
     23  C27       46.1560   -2.7950   15.6740 C.3   249  INH249      0.2350
     24  C29       47.0100   -2.3410   16.8800 C.3   249  INH249      0.0280
     25  C30       46.7430   -0.8510   17.1840 C.3   249  INH249      0.0030
     26  C28       45.2330   -0.5380   17.2910 C.3   249  INH249      0.0280
     27  C26       44.5020   -1.0690   16.0430 C.3   249  INH249      0.2350
     28  C1        35.1420   -0.3510   18.0010 C.ar  249  INH249     -0.0230
     29  C17       35.8520   -0.4960   19.2360 C.ar  249  INH249      0.0140
     30  C21       35.5090   -1.5130   20.1550 C.ar  249  INH249      0.0240
     31  C11       34.4520   -2.4030   19.8590 C.ar  249  INH249      0.0580
     32  C8        33.7360   -2.2870   18.6390 C.ar  249  INH249      0.0240
     33  C5        34.0700   -1.2640   17.7110 C.ar  249  INH249      0.0140
     34  S1        34.0510   -3.6840   21.0300 S.O2  249  INH249      0.1710
     35  O5        32.5220   -3.6970   21.2190 O.2   249  INH249     -0.2230
     36  O4        34.1910   -5.0160   20.2880 O.2   249  INH249     -0.2230
     37  C23       34.8460   -3.9000   22.6700 C.3   249  INH249      0.1670
     38  O2        37.2830    4.7340   12.2990 O.3   249  INH249     -0.3610
     39  H14       37.2980    5.5410   12.7990 H     249  INH249      0.2170
@<TRIPOS>BOND
     1    38    39    1
     2    38    10    1
     3     9    10   ar
     4     9     3   ar
     5    10     4   ar
     6     3     7   ar
     7    14    13   ar
     8    14    15   ar
     9    13    12   ar
    10     4     2   ar
    11    19    20    1
    12    19    18    1
    13     7     2   ar
    14     7     5   ar
    15    20    21    1
    16    11    12    1
    17    11     5    1
    18    12    17   ar
    19    15    18    1
    20    15    16   ar
    21     2     8   ar
    22    23    21    1
    23    23    24    1
    24     5     6   ar
    25    21    27    1
    26    21    22    1
    27    27    26    1
    28    16    17   ar
    29     8     1   ar
    30    24    25    1
    31     6     1   ar
    32     6    28    1
    33    25    26    1
    34    33    28   ar
    35    33    32   ar
    36    28    29   ar
    37    32    31   ar
    38    29    30   ar
    39    31    30   ar
    40    31    34    1
    41    36    34    2
    42    34    35    2
    43    34    37    1
