@<TRIPOS>MOLECULE
/tmp/ewbell/vina_2ayr_2ayr_lig/vina/vina5.pdbqt
 39 43 0 0 0
SMALL
GASTEIGER

@<TRIPOS>ATOM
      1  C2        38.1860    0.7840   18.6590 C.ar  249  INH249      0.0160
      2  C3        36.2390   -0.6460   19.1030 C.ar  249  INH249     -0.0210
      3  C4        34.5010   -0.9940   17.3550 C.ar  249  INH249      0.0180
      4  C6        35.5150   -1.4870   19.9830 C.ar  249  INH249      0.0490
      5  C13       36.4640    0.4690   16.8860 C.ar  249  INH249      0.0980
      6  C14       37.7220    1.0640   17.3340 C.ar  249  INH249      0.0090
      7  C15       35.7340   -0.3850   17.7700 C.ar  249  INH249      0.0090
      8  C18       37.4540   -0.0590   19.5310 C.ar  249  INH249      0.0130
      9  C19       33.7900   -1.8320   18.2440 C.ar  249  INH249      0.0370
     10  C22       34.2910   -2.0790   19.5520 C.ar  249  INH249      0.0660
     11  O1        35.9370    0.7090   15.5830 O.3   249  INH249     -0.3090
     12  C16       35.5920    2.0830   15.2800 C.ar  249  INH249      0.0760
     13  C7        34.7960    2.8050   16.2040 C.ar  249  INH249      0.0400
     14  C9        34.4310    4.1470   15.9510 C.ar  249  INH249      0.0390
     15  C12       34.8600    4.8160   14.7440 C.ar  249  INH249      0.0690
     16  C10       35.6570    4.1000   13.8130 C.ar  249  INH249      0.0390
     17  C20       36.0210    2.7590   14.0680 C.ar  249  INH249      0.0400
     18  O3        34.5410    6.1560   14.4110 O.3   249  INH249     -0.3490
     19  C24       34.9050    7.2160   15.3150 C.3   249  INH249      0.2030
     20  C25       33.6240    7.7710   15.9730 C.3   249  INH249      0.2610
     21  N1        33.1920    9.1460   15.7150 N.4   249  INH249     -0.0690
     22  H22       32.1990    9.1210   15.5480 H     249  INH249      0.2800
     23  C27       33.4340   10.0780   16.8550 C.3   249  INH249      0.2350
     24  C29       32.7610   11.4430   16.5850 C.3   249  INH249      0.0280
     25  C30       33.2660   12.0260   15.2480 C.3   249  INH249      0.0030
     26  C28       33.1680   11.0050   14.0920 C.3   249  INH249      0.0280
     27  C26       33.8510    9.6850   14.5040 C.3   249  INH249      0.2350
     28  C1        38.5290    1.9570   16.4630 C.ar  249  INH249     -0.0230
     29  C17       38.6450    3.3520   16.7660 C.ar  249  INH249      0.0140
     30  C21       39.4200    4.2080   15.9530 C.ar  249  INH249      0.0240
     31  C11       40.0930    3.6900   14.8240 C.ar  249  INH249      0.0580
     32  C8        39.9900    2.3120   14.4960 C.ar  249  INH249      0.0240
     33  C5        39.2170    1.4420   15.3110 C.ar  249  INH249      0.0140
     34  S1        41.0520    4.7960   13.8090 S.O2  249  INH249      0.1710
     35  O5        41.6250    5.9010   14.7160 O.2   249  INH249     -0.2230
     36  O4        42.3640    4.0720   13.4910 O.2   249  INH249     -0.2230
     37  C23       40.4730    5.5610   12.2450 C.3   249  INH249      0.1670
     38  O2        33.6040   -2.8700   20.3870 O.3   249  INH249     -0.3610
     39  H14       33.9270   -3.7600   20.3160 H     249  INH249      0.2170
@<TRIPOS>BOND
     1    37    34    1
     2    36    34    2
     3    34    35    2
     4    34    31    1
     5    16    17   ar
     6    16    15   ar
     7    17    12   ar
     8    26    27    1
     9    26    25    1
    10    18    15    1
    11    18    19    1
    12    32    31   ar
    13    32    33   ar
    14    27    21    1
    15    15    14   ar
    16    31    30   ar
    17    25    24    1
    18    12    11    1
    19    12    13   ar
    20    33    28   ar
    21    19    20    1
    22    22    21    1
    23    11     5    1
    24    21    20    1
    25    21    23    1
    26    14    13   ar
    27    30    29   ar
    28    28    29   ar
    29    28     6    1
    30    24    23    1
    31     5     6   ar
    32     5     7   ar
    33     6     1   ar
    34     3     7   ar
    35     3     9   ar
    36     7     2   ar
    37     9    10   ar
    38     1     8   ar
    39     2     8   ar
    40     2     4   ar
    41    10     4   ar
    42    10    38    1
    43    39    38    1
