@<TRIPOS>MOLECULE
/tmp/ewbell/vina_2ayr_2ayr_lig/vina/vina1.pdbqt
 39 43 0 0 0
SMALL
GASTEIGER

@<TRIPOS>ATOM
      1  C2        37.2790    2.4430   18.8850 C.ar  249  INH249      0.0160
      2  C3        38.7130    3.6310   17.2830 C.ar  249  INH249     -0.0210
      3  C4        39.0220    2.7580   14.9730 C.ar  249  INH249      0.0180
      4  C6        39.5690    4.7180   16.9810 C.ar  249  INH249      0.0490
      5  C13       37.5700    1.5290   16.5850 C.ar  249  INH249      0.0980
      6  C14       36.9740    1.4330   17.9160 C.ar  249  INH249      0.0090
      7  C15       38.4310    2.6290   16.2750 C.ar  249  INH249      0.0090
      8  C18       38.1380    3.5260   18.5730 C.ar  249  INH249      0.0130
      9  C19       39.8740    3.8480   14.6860 C.ar  249  INH249      0.0370
     10  C22       40.1490    4.8250   15.6820 C.ar  249  INH249      0.0660
     11  O1        37.3160    0.5590   15.5720 O.3   249  INH249     -0.3090
     12  C16       38.2260   -0.5680   15.5300 C.ar  249  INH249      0.0760
     13  C7        37.9010   -1.6770   14.7120 C.ar  249  INH249      0.0400
     14  C9        38.7560   -2.8010   14.6410 C.ar  249  INH249      0.0390
     15  C12       39.9830   -2.8460   15.4030 C.ar  249  INH249      0.0690
     16  C10       40.3170   -1.7390   16.2260 C.ar  249  INH249      0.0390
     17  C20       39.4610   -0.6170   16.2940 C.ar  249  INH249      0.0400
     18  O3        40.8970   -3.9290   15.3910 O.3   249  INH249     -0.3490
     19  C24       42.2550   -3.7060   14.9710 C.3   249  INH249      0.2030
     20  C25       42.2550   -3.2850   13.4860 C.3   249  INH249      0.2610
     21  N1        42.6000   -1.9150   13.1030 N.4   249  INH249     -0.0690
     22  H22       43.2410   -1.9750   12.3280 H     249  INH249      0.2800
     23  C27       41.4320   -1.1000   12.6590 C.3   249  INH249      0.2350
     24  C29       41.9090    0.2480   12.0730 C.3   249  INH249      0.0280
     25  C30       42.7730    0.9980   13.1090 C.3   249  INH249      0.0030
     26  C28       43.8890    0.1030   13.6940 C.3   249  INH249      0.0280
     27  C26       43.2820   -1.2140   14.2140 C.3   249  INH249      0.2350
     28  C1        36.0700    0.3200   18.3000 C.ar  249  INH249     -0.0230
     29  C17       35.1060   -0.1840   17.3670 C.ar  249  INH249      0.0140
     30  C21       34.2490   -1.2510   17.7160 C.ar  249  INH249      0.0240
     31  C11       34.3370   -1.8360   18.9990 C.ar  249  INH249      0.0580
     32  C8        35.2780   -1.3520   19.9460 C.ar  249  INH249      0.0240
     33  C5        36.1480   -0.2820   19.6030 C.ar  249  INH249      0.0140
     34  S1        33.2340   -3.1710   19.4160 S.O2  249  INH249      0.1710
     35  O5        32.1780   -3.2850   18.3010 O.2   249  INH249     -0.2230
     36  O4        33.9930   -4.4710   19.1320 O.2   249  INH249     -0.2230
     37  C23       32.4010   -3.3840   21.0370 C.3   249  INH249      0.1670
     38  O2        40.9640    5.8500   15.3990 O.3   249  INH249     -0.3610
     39  H14       40.5790    6.6570   15.7200 H     249  INH249      0.2170
@<TRIPOS>BOND
     1    24    23    1
     2    24    25    1
     3    22    21    1
     4    23    21    1
     5    21    20    1
     6    21    27    1
     7    25    26    1
     8    20    19    1
     9    26    27    1
    10    14    13   ar
    11    14    15   ar
    12     9     3   ar
    13     9    10   ar
    14    13    12   ar
    15    19    18    1
    16     3     7   ar
    17    18    15    1
    18    38    10    1
    19    38    39    1
    20    15    16   ar
    21    12    11    1
    22    12    17   ar
    23    11     5    1
    24    10     4   ar
    25    16    17   ar
    26     7     5   ar
    27     7     2   ar
    28     5     6   ar
    29     4     2   ar
    30     2     8   ar
    31    29    30   ar
    32    29    28   ar
    33    30    31   ar
    34     6    28    1
    35     6     1   ar
    36    28    33   ar
    37    35    34    2
    38     8     1   ar
    39    31    34    1
    40    31    32   ar
    41    36    34    2
    42    34    37    1
    43    33    32   ar
