@<TRIPOS>MOLECULE
/tmp/ewbell/vina_2ayr_2ayr_lig/vina/vina3.pdbqt
 39 43 0 0 0
SMALL
GASTEIGER

@<TRIPOS>ATOM
      1  C2        35.2430    1.9270   17.2320 C.ar  249  INH249      0.0160
      2  C3        36.1210    2.5750   15.0320 C.ar  249  INH249     -0.0210
      3  C4        36.8860    0.8420   13.4160 C.ar  249  INH249      0.0180
      4  C6        36.4540    3.5860   14.0970 C.ar  249  INH249      0.0490
      5  C13       36.0070    0.1630   15.6480 C.ar  249  INH249      0.0980
      6  C14       35.4410    0.5400   16.9420 C.ar  249  INH249      0.0090
      7  C15       36.3390    1.1810   14.6990 C.ar  249  INH249      0.0090
      8  C18       35.5800    2.9310   16.2900 C.ar  249  INH249      0.0130
      9  C19       37.2120    1.8620   12.4940 C.ar  249  INH249      0.0370
     10  C22       36.9990    3.2280   12.8280 C.ar  249  INH249      0.0660
     11  O1        36.2380   -1.1980   15.2920 O.3   249  INH249     -0.3090
     12  C16       37.6230   -1.6220   15.2670 C.ar  249  INH249      0.0760
     13  C7        38.0090   -2.6380   14.3580 C.ar  249  INH249      0.0400
     14  C9        39.3490   -3.0860   14.3000 C.ar  249  INH249      0.0390
     15  C12       40.3570   -2.5200   15.1660 C.ar  249  INH249      0.0690
     16  C10       39.9800   -1.5020   16.0800 C.ar  249  INH249      0.0390
     17  C20       38.6410   -1.0550   16.1350 C.ar  249  INH249      0.0400
     18  O3        41.7200   -2.9080   15.1740 O.3   249  INH249     -0.3490
     19  C24       42.7070   -2.0460   14.5780 C.3   249  INH249      0.2030
     20  C25       42.9110   -2.4660   13.1070 C.3   249  INH249      0.2610
     21  N1        41.9400   -2.0760   12.0820 N.4   249  INH249     -0.0690
     22  H22       41.1510   -2.6960   12.1670 H     249  INH249      0.2800
     23  C27       41.4350   -0.6800   12.2300 C.3   249  INH249      0.2350
     24  C29       40.2680   -0.4240   11.2490 C.3   249  INH249      0.0280
     25  C30       40.7180   -0.7220    9.8030 C.3   249  INH249      0.0030
     26  C28       41.3920   -2.1080    9.6770 C.3   249  INH249      0.0280
     27  C26       42.5120   -2.2400   10.7270 C.3   249  INH249      0.2350
     28  C1        35.0720   -0.4690   17.9680 C.ar  249  INH249     -0.0230
     29  C17       33.9860   -1.3730   17.7360 C.ar  249  INH249      0.0140
     30  C21       33.6330   -2.3450   18.6980 C.ar  249  INH249      0.0240
     31  C11       34.3570   -2.4330   19.9090 C.ar  249  INH249      0.0580
     32  C8        35.4340   -1.5450   20.1680 C.ar  249  INH249      0.0240
     33  C5        35.7990   -0.5670   19.2040 C.ar  249  INH249      0.0140
     34  S1        33.8820   -3.6590   21.1100 S.O2  249  INH249      0.1710
     35  O5        32.3470   -3.6360   21.2370 O.2   249  INH249     -0.2230
     36  O4        34.0250   -5.0220   20.4260 O.2   249  INH249     -0.2230
     37  C23       34.6060   -3.8270   22.7890 C.3   249  INH249      0.1670
     38  O2        37.3190    4.1850   11.9470 O.3   249  INH249     -0.3610
     39  H14       37.7060    3.7880   11.1770 H     249  INH249      0.2170
@<TRIPOS>BOND
     1    26    25    1
     2    26    27    1
     3    25    24    1
     4    27    21    1
     5    39    38    1
     6    24    23    1
     7    38    10    1
     8    21    22    1
     9    21    23    1
    10    21    20    1
    11     9    10   ar
    12     9     3   ar
    13    10     4   ar
    14    20    19    1
    15     3     7   ar
    16     4     2   ar
    17    14    13   ar
    18    14    15   ar
    19    13    12   ar
    20    19    18    1
    21     7     2   ar
    22     7     5   ar
    23     2     8   ar
    24    15    18    1
    25    15    16   ar
    26    12    11    1
    27    12    17   ar
    28    11     5    1
    29     5     6   ar
    30    16    17   ar
    31     8     1   ar
    32     6     1   ar
    33     6    28    1
    34    29    28   ar
    35    29    30   ar
    36    28    33   ar
    37    30    31   ar
    38    33    32   ar
    39    31    32   ar
    40    31    34    1
    41    36    34    2
    42    34    35    2
    43    34    37    1
