@<TRIPOS>MOLECULE
/tmp/ewbell/vina_2ayr_2ayr_lig/vina/vina2.pdbqt
 39 43 0 0 0
SMALL
GASTEIGER

@<TRIPOS>ATOM
      1  C2        37.0280    0.3270   19.6040 C.ar  249  INH249      0.0160
      2  C3        35.2410   -1.3530   19.4720 C.ar  249  INH249     -0.0210
      3  C4        33.7410   -1.4500   17.4880 C.ar  249  INH249      0.0180
      4  C6        34.5450   -2.4440   20.0450 C.ar  249  INH249      0.0490
      5  C13       35.5420    0.2700   17.6050 C.ar  249  INH249      0.0980
      6  C14       36.6650    0.8640   18.3280 C.ar  249  INH249      0.0090
      7  C15       34.8410   -0.8370   18.1780 C.ar  249  INH249      0.0090
      8  C18       36.3250   -0.7660   20.1690 C.ar  249  INH249      0.0130
      9  C19       33.0560   -2.5390   18.0720 C.ar  249  INH249      0.0370
     10  C22       33.4530   -3.0370   19.3440 C.ar  249  INH249      0.0660
     11  O1        35.1200    0.7560   16.3320 O.3   249  INH249     -0.3090
     12  C16       36.0010    0.4660   15.2190 C.ar  249  INH249      0.0760
     13  C7        36.6010   -0.8140   15.1400 C.ar  249  INH249      0.0400
     14  C9        37.4700   -1.1420   14.0740 C.ar  249  INH249      0.0390
     15  C12       37.7680   -0.1790   13.0390 C.ar  249  INH249      0.0690
     16  C10       37.1720    1.1060   13.1100 C.ar  249  INH249      0.0390
     17  C20       36.3030    1.4310   14.1760 C.ar  249  INH249      0.0400
     18  O3        38.6250   -0.4230   11.9370 O.3   249  INH249     -0.3490
     19  C24       39.9770   -0.8580   12.1720 C.3   249  INH249      0.2030
     20  C25       40.0870   -2.3570   11.8200 C.3   249  INH249      0.2610
     21  N1        40.3240   -3.3500   12.8690 N.4   249  INH249     -0.0690
     22  H22       40.9200   -4.0610   12.4780 H     249  INH249      0.2800
     23  C27       41.0090   -2.8020   14.0760 C.3   249  INH249      0.2350
     24  C29       41.4110   -3.9470   15.0330 C.3   249  INH249      0.0280
     25  C30       40.1690   -4.7830   15.4070 C.3   249  INH249      0.0030
     26  C28       39.3620   -5.2180   14.1630 C.3   249  INH249      0.0280
     27  C26       39.0550   -3.9880   13.2850 C.3   249  INH249      0.2350
     28  C1        37.4360    2.0120   17.7850 C.ar  249  INH249     -0.0230
     29  C17       38.5920    1.7860   16.9690 C.ar  249  INH249      0.0140
     30  C21       39.3260    2.8700   16.4380 C.ar  249  INH249      0.0240
     31  C11       38.9220    4.1960   16.7100 C.ar  249  INH249      0.0580
     32  C8        37.7850    4.4490   17.5220 C.ar  249  INH249      0.0240
     33  C5        37.0370    3.3660   18.0570 C.ar  249  INH249      0.0140
     34  S1        39.8750    5.5430   16.0370 S.O2  249  INH249      0.1710
     35  O5        39.3580    5.8310   14.6150 O.2   249  INH249     -0.2230
     36  O4        39.3700    6.8200   16.7160 O.2   249  INH249     -0.2230
     37  C23       41.7080    5.6340   16.0250 C.3   249  INH249      0.1670
     38  O2        32.7910   -4.0660   19.8890 O.3   249  INH249     -0.3610
     39  H14       31.9190   -3.7840   20.1390 H     249  INH249      0.2170
@<TRIPOS>BOND
     1    20    19    1
     2    20    21    1
     3    18    19    1
     4    18    15    1
     5    22    21    1
     6    21    27    1
     7    21    23    1
     8    15    16   ar
     9    15    14   ar
    10    16    17   ar
    11    27    26    1
    12    14    13   ar
    13    23    24    1
    14    26    25    1
    15    17    12   ar
    16    35    34    2
    17    24    25    1
    18    13    12   ar
    19    12    11    1
    20    37    34    1
    21    34    31    1
    22    34    36    2
    23    11     5    1
    24    30    31   ar
    25    30    29   ar
    26    31    32   ar
    27    29    28   ar
    28     3     9   ar
    29     3     7   ar
    30    32    33   ar
    31     5     7   ar
    32     5     6   ar
    33    28    33   ar
    34    28     6    1
    35     9    10   ar
    36     7     2   ar
    37     6     1   ar
    38    10    38    1
    39    10     4   ar
    40     2     4   ar
    41     2     8   ar
    42     1     8   ar
    43    38    39    1
