@<TRIPOS>MOLECULE
./ligand/2jdu_lig.pdb
 26 26 0 0 0
SMALL
GASTEIGER

@<TRIPOS>ATOM
      1  C1       -40.0780   20.3600   11.1970 C.3   469  INH469      0.1875
      2  C2       -38.6790   19.8620   11.4050 C.3   469  INH469      0.1341
      3  C3       -38.1330   20.3660   12.7550 C.3   469  INH469      0.1140
      4  C4       -39.0380   20.0820   13.9480 C.3   469  INH469      0.1095
      5  C5       -40.4120   20.6450   13.6230 C.3   469  INH469      0.0873
      6  C6       -41.4090   20.5160   14.7940 C.3   469  INH469     -0.0361
      7  O1       -40.0430   21.7910   11.0070 O.3   469  INH469     -0.3520
      8  O2       -37.7690   20.2470   10.3390 O.3   469  INH469     -0.3841
      9  O3       -36.8690   19.7030   12.9710 O.3   469  INH469     -0.3864
     10  O4       -39.0420   18.6540   14.1730 O.3   469  INH469     -0.3866
     11  O5       -40.8770   20.0520   12.3800 O.3   469  INH469     -0.3431
     12  C7       -41.3320   22.2360   10.4930 C.3   469  INH469      0.0395
     13  H1       -40.5190   19.8760   10.3130 H     469  INH469      0.0937
     14  H2       -38.7170   18.7630   11.4340 H     469  INH469      0.0671
     15  H3       -37.9790   21.4530   12.6880 H     469  INH469      0.0648
     16  H4       -38.6490   20.5840   14.8460 H     469  INH469      0.0646
     17  H5       -40.2890   21.7230   13.4410 H     469  INH469      0.0621
     18  H6       -42.3800   20.9400   14.4970 H     469  INH469      0.0255
     19  H7       -41.0220   21.0620   15.6670 H     469  INH469      0.0255
     20  H8       -41.5360   19.4540   15.0520 H     469  INH469      0.0255
     21  H9       -38.1060   19.9360    9.5070 H     469  INH469      0.2101
     22  H10      -36.4950   19.9940   13.7950 H     469  INH469      0.2100
     23  H11      -39.6010   18.4510   14.9140 H     469  INH469      0.2100
     24  H12      -41.3120   23.3260   10.3460 H     469  INH469      0.0525
     25  H13      -42.1230   21.9780   11.2130 H     469  INH469      0.0525
     26  H14      -41.5350   21.7400    9.5320 H     469  INH469      0.0525
@<TRIPOS>BOND
     1     1    13    1
     2     1    11    1
     3     1     7    1
     4     1     2    1
     5     2    14    1
     6     2     8    1
     7     2     3    1
     8     3    15    1
     9     3     9    1
    10     3     4    1
    11     4    16    1
    12     4    10    1
    13     4     5    1
    14     5    17    1
    15     5    11    1
    16     5     6    1
    17     6    20    1
    18     6    19    1
    19     6    18    1
    20     7    12    1
    21     8    21    1
    22     9    22    1
    23    10    23    1
    24    12    26    1
    25    12    25    1
    26    12    24    1
