@<TRIPOS>MOLECULE
/tmp/ewbell/vina_2jdu_2jdu_lig/vina/vina3.pdbqt
 15 15 0 0 0
SMALL
GASTEIGER

@<TRIPOS>ATOM
      1  C1       -39.3700   22.2000   13.9200 C.3   469  INH469      0.2900
      2  C2       -39.2400   20.8160   14.4820 C.3   469  INH469      0.2040
      3  C3       -39.3830   19.7720   13.3570 C.3   469  INH469      0.1830
      4  C4       -38.4680   20.0050   12.1600 C.3   469  INH469      0.1780
      5  C5       -38.7030   21.4270   11.6760 C.3   469  INH469      0.1520
      6  C6       -37.9100   21.7670   10.3960 C.3   469  INH469      0.0420
      7  O5       -38.4670   22.3410   12.7810 O.3   469  INH469     -0.3510
      8  O1       -40.7290   22.4000   13.4760 O.3   469  INH469     -0.3630
      9  C7       -41.0140   23.8290   13.4400 C.3   469  INH469      0.2040
     10  O2       -40.2030   20.5310   15.5330 O.3   469  INH469     -0.3880
     11  H9       -39.8540   19.8620   16.1100 H     469  INH469      0.2100
     12  O3       -39.0650   18.4870   13.9330 O.3   469  INH469     -0.3900
     13  H10      -39.0770   17.8230   13.2530 H     469  INH469      0.2100
     14  O4       -37.1080   19.7620   12.5860 O.3   469  INH469     -0.3900
     15  H11      -37.1130   19.3060   13.4190 H     469  INH469      0.2100
@<TRIPOS>BOND
     1     6     5    1
     2     5     4    1
     3     5     7    1
     4     4    14    1
     5     4     3    1
     6    14    15    1
     7     7     1    1
     8    13    12    1
     9     3    12    1
    10     3     2    1
    11     9     8    1
    12     8     1    1
    13     1     2    1
    14     2    10    1
    15    10    11    1
