@<TRIPOS>MOLECULE
/tmp/ewbell/vina_2jdu_2jdu_lig/vina/vina2.pdbqt
 15 15 0 0 0
SMALL
GASTEIGER

@<TRIPOS>ATOM
      1  C1       -39.3080   20.9140   13.2720 C.3   469  INH469      0.2900
      2  C2       -38.1150   20.6570   12.4000 C.3   469  INH469      0.2040
      3  C3       -38.5520   20.5360   10.9270 C.3   469  INH469      0.1830
      4  C4       -39.4050   21.6950   10.4240 C.3   469  INH469      0.1780
      5  C5       -40.5810   21.8430   11.3760 C.3   469  INH469      0.1520
      6  C6       -41.5890   22.9220   10.9260 C.3   469  INH469      0.0420
      7  O5       -40.0700   22.0330   12.7230 O.3   469  INH469     -0.3510
      8  O1       -40.1400   19.7350   13.2870 O.3   469  INH469     -0.3630
      9  C7       -40.7150   19.5740   14.6160 C.3   469  INH469      0.2040
     10  O2       -37.3690   19.4700   12.7840 O.3   469  INH469     -0.3880
     11  H9       -36.9760   19.6060   13.6380 H     469  INH469      0.2100
     12  O3       -37.3470   20.4770   10.1340 O.3   469  INH469     -0.3900
     13  H10      -36.7650   19.8160   10.4920 H     469  INH469      0.2100
     14  O4       -38.5660   22.8700   10.3620 O.3   469  INH469     -0.3900
     15  H11      -37.9050   22.7530    9.6900 H     469  INH469      0.2100
@<TRIPOS>BOND
     1    15    14    1
     2    12    13    1
     3    12     3    1
     4    14     4    1
     5     4     3    1
     6     4     5    1
     7     6     5    1
     8     3     2    1
     9     5     7    1
    10     2    10    1
    11     2     1    1
    12     7     1    1
    13    10    11    1
    14     1     8    1
    15     8     9    1
