@<TRIPOS>MOLECULE
/tmp/ewbell/vina_2jdu_2jdu_lig/vina/vina5.pdbqt
 15 15 0 0 0
SMALL
GASTEIGER

@<TRIPOS>ATOM
      1  C1       -39.6620   21.6660   11.7240 C.3   469  INH469      0.2900
      2  C2       -39.5880   20.2030   12.0440 C.3   469  INH469      0.2040
      3  C3       -38.6080   19.9650   13.2090 C.3   469  INH469      0.1830
      4  C4       -38.8730   20.8200   14.4420 C.3   469  INH469      0.1780
      5  C5       -38.9090   22.2720   13.9920 C.3   469  INH469      0.1520
      6  C6       -39.0700   23.2630   15.1640 C.3   469  INH469      0.0420
      7  O5       -39.9150   22.4130   12.9530 O.3   469  INH469     -0.3510
      8  O1       -38.3990   22.0880   11.1640 O.3   469  INH469     -0.3630
      9  C7       -38.6280   23.2080   10.2610 C.3   469  INH469      0.2040
     10  O2       -39.1970   19.3860   10.9070 O.3   469  INH469     -0.3880
     11  H9       -38.5460   19.8500   10.3930 H     469  INH469      0.2100
     12  O3       -38.7270   18.5750   13.5820 O.3   469  INH469     -0.3900
     13  H10      -38.3490   18.0310   12.9000 H     469  INH469      0.2100
     14  O4       -40.1130   20.3730   15.0350 O.3   469  INH469     -0.3900
     15  H11      -40.6320   21.1270   15.2930 H     469  INH469      0.2100
@<TRIPOS>BOND
     1     9     8    1
     2    11    10    1
     3    10     2    1
     4     8     1    1
     5     1     2    1
     6     1     7    1
     7     2     3    1
     8    13    12    1
     9     7     5    1
    10     3    12    1
    11     3     4    1
    12     5     4    1
    13     5     6    1
    14     4    14    1
    15    14    15    1
