@<TRIPOS>MOLECULE
/tmp/ewbell/vina_2jdu_2jdu_lig/vina/vina4.pdbqt
 15 15 0 0 0
SMALL
GASTEIGER

@<TRIPOS>ATOM
      1  C1       -39.1410   23.1100   12.0140 C.3   469  INH469      0.2900
      2  C2       -38.4000   22.4370   10.8960 C.3   469  INH469      0.2040
      3  C3       -37.9920   21.0120   11.3150 C.3   469  INH469      0.1830
      4  C4       -39.1350   20.1600   11.8540 C.3   469  INH469      0.1780
      5  C5       -39.7900   20.9380   12.9830 C.3   469  INH469      0.1520
      6  C6       -40.9080   20.1440   13.6930 C.3   469  INH469      0.0420
      7  O5       -40.2130   22.2320   12.4740 O.3   469  INH469     -0.3510
      8  O1       -38.2250   23.3520   13.1040 O.3   469  INH469     -0.3630
      9  C7       -38.3550   24.7370   13.5360 C.3   469  INH469      0.2040
     10  O2       -37.2230   23.1730   10.4650 O.3   469  INH469     -0.3880
     11  H9       -37.2360   24.0430   10.8450 H     469  INH469      0.2100
     12  O3       -37.4550   20.3670   10.1400 O.3   469  INH469     -0.3900
     13  H10      -36.6740   20.8270    9.8540 H     469  INH469      0.2100
     14  O4       -40.0320   19.8740   10.7570 O.3   469  INH469     -0.3900
     15  H11      -40.6170   20.6120   10.6260 H     469  INH469      0.2100
@<TRIPOS>BOND
     1    13    12    1
     2    12     3    1
     3    10    11    1
     4    10     2    1
     5    15    14    1
     6    14     4    1
     7     2     3    1
     8     2     1    1
     9     3     4    1
    10     4     5    1
    11     1     7    1
    12     1     8    1
    13     7     5    1
    14     5     6    1
    15     8     9    1
