@<TRIPOS>MOLECULE
/tmp/ewbell/vina_2jdu_2jdu_lig/vina/vina1.pdbqt
 15 15 0 0 0
SMALL
GASTEIGER

@<TRIPOS>ATOM
      1  C1       -40.0810   20.5320   11.0500 C.3   469  INH469      0.2900
      2  C2       -38.7160   19.9470   11.2560 C.3   469  INH469      0.2040
      3  C3       -38.1840   20.3240   12.6520 C.3   469  INH469      0.1830
      4  C4       -39.1360   20.0040   13.7980 C.3   469  INH469      0.1780
      5  C5       -40.4700   20.6600   13.4810 C.3   469  INH469      0.1520
      6  C6       -41.5060   20.5000   14.6140 C.3   469  INH469      0.0420
      7  O5       -40.9290   20.1820   12.1870 O.3   469  INH469     -0.3510
      8  O1       -39.9690   21.9690   10.9650 O.3   469  INH469     -0.3630
      9  C7       -40.8980   22.4620    9.9580 C.3   469  INH469      0.2040
     10  O2       -37.7570   20.3590   10.2440 O.3   469  INH469     -0.3880
     11  H9       -36.9320   20.5780   10.6600 H     469  INH469      0.2100
     12  O3       -36.9620   19.5820   12.8510 O.3   469  INH469     -0.3900
     13  H10      -36.2220   20.1780   12.8320 H     469  INH469      0.2100
     14  O4       -39.2190   18.5650   13.9190 O.3   469  INH469     -0.3900
     15  H11      -39.4300   18.3340   14.8160 H     469  INH469      0.2100
@<TRIPOS>BOND
     1     9     8    1
     2    10    11    1
     3    10     2    1
     4     8     1    1
     5     1     2    1
     6     1     7    1
     7     2     3    1
     8     7     5    1
     9     3    12    1
    10     3     4    1
    11    13    12    1
    12     5     4    1
    13     5     6    1
    14     4    14    1
    15    14    15    1
