@<TRIPOS>MOLECULE
./ligand/2pow_lig.pdb
 26 26 0 0 0
SMALL
GASTEIGER

@<TRIPOS>ATOM
      1  C1        -4.9980    1.9280   14.6650 C.ar  261  INH261     -0.0066
      2  C2        -5.5620    2.1870   15.9170 C.ar  261  INH261      0.1290
      3  C3        -5.7840    3.5120   16.3610 C.ar  261  INH261      0.0519
      4  C4        -5.4180    4.5720   15.5250 C.ar  261  INH261     -0.0256
      5  C5        -4.8350    4.3490   14.2420 C.ar  261  INH261      0.0829
      6  C6        -4.6310    2.9820   13.8130 C.ar  261  INH261      0.1186
      7  S1        -6.0070    0.8330   16.9470 S.O2  261  INH261      0.0741
      8  N1        -5.3870   -0.4840   16.3400 N.3   261  INH261     -0.1052
      9  O1        -5.3930    1.0370   18.2240 O.2   261  INH261     -0.1518
     10  O2        -7.4260    0.7510   16.8590 O.2   261  INH261     -0.1518
     11  S2        -3.9350    2.4800   12.2400 S.O2  261  INH261      0.0566
     12  N2        -2.3860    2.7470   12.2340 N.3   261  INH261     -0.2035
     13  O3        -4.1530    1.0690   12.1250 O.2   261  INH261     -0.1532
     14  O4        -4.5250    3.3210   11.2450 O.2   261  INH261     -0.1532
     15  N3        -6.3440    3.8070   17.5840 N.pl3 261  INH261     -0.3564
     16  C7        -4.4650    5.5270   13.4030 C.3   261  INH261      0.4193
     17  F1        -5.3940    5.8570   12.4910 F     261  INH261     -0.1658
     18  F2        -4.2780    6.6400   14.1320 F     261  INH261     -0.1658
     19  F3        -3.3140    5.3730   12.7210 F     261  INH261     -0.1658
     20  H1        -4.8420    0.9030   14.3480 H     261  INH261      0.0657
     21  H2        -5.5820    5.5900   15.8610 H     261  INH261      0.0643
     22  H3        -5.5360   -1.3620   16.7940 H     261  INH261      0.1694
     23  H4        -1.8430    2.5210   11.4250 H     261  INH261      0.1442
     24  H5        -1.9440    3.1430   13.0390 H     261  INH261      0.1442
     25  H6        -6.6230    3.0460   18.2200 H     261  INH261      0.1424
     26  H7        -6.4840    4.7890   17.8630 H     261  INH261      0.1424
@<TRIPOS>BOND
     1     1    20    1
     2     1     6   ar
     3     1     2   ar
     4     2     7    1
     5     2     3   ar
     6     3    15    1
     7     3     4   ar
     8     4    21    1
     9     4     5   ar
    10     5    16    1
    11     5     6   ar
    12     6    11    1
    13     7    10    2
    14     7     9    2
    15     7     8    1
    16     8    22    1
    17    11    14    2
    18    11    13    2
    19    11    12    1
    20    12    24    1
    21    12    23    1
    22    15    26    1
    23    15    25    1
    24    16    19    1
    25    16    18    1
    26    16    17    1
