@<TRIPOS>MOLECULE
/tmp/ewbell/vina_2pow_2pow_lig/vina/vina4.pdbqt
 25 25 0 0 0
SMALL
GASTEIGER

@<TRIPOS>ATOM
      1  C1         6.7010   -8.5320    5.7810 C.ar  261  INH261      0.0530
      2  C2         6.2180   -9.6280    6.5010 C.ar  261  INH261      0.1020
      3  C3         5.1570   -9.4870    7.4270 C.ar  261  INH261      0.0490
      4  C4         4.5990   -8.2190    7.6220 C.ar  261  INH261      0.0480
      5  C5         5.0670   -7.0750    6.9100 C.ar  261  INH261      0.0730
      6  C6         6.1460   -7.2550    5.9630 C.ar  261  INH261      0.0960
      7  S1         6.9440  -11.2080    6.2360 S.O2  261  INH261      0.2410
      8  O2         5.8840  -12.0270    5.7530 O.2   261  INH261     -0.2060
      9  O1         7.6260  -11.5800    7.4380 O.2   261  INH261     -0.2060
     10  N1         8.0350  -11.0760    5.1050 N.3   261  INH261     -0.2250
     11  H3         8.2490  -11.8590    4.5230 H     261  INH261      0.1360
     12  H          8.9040  -10.8050    5.5660 H     261  INH261      0.1360
     13  N3         4.6490  -10.5440    8.1480 N.pl3 261  INH261     -0.3980
     14  H7         4.2470  -11.3560    7.6590 H     261  INH261      0.1560
     15  H6         4.6710  -10.5220    9.1780 H     261  INH261      0.1560
     16  S2         6.8700   -5.9620    4.9550 S.O2  261  INH261      0.2570
     17  O4         7.3760   -4.9760    5.8570 O.2   261  INH261     -0.2010
     18  O3         5.8590   -5.5510    4.0260 O.2   261  INH261     -0.2010
     19  N2         8.0870   -6.5380    4.1440 N.3   261  INH261     -0.3240
     20  H5         8.8560   -6.9580    4.6280 H     261  INH261      0.1690
     21  H4         8.0920   -6.4860    3.1450 H     261  INH261      0.1690
     22  C7         4.4280   -5.7520    7.1710 C.3   261  INH261      0.4190
     23  F3         5.2750   -4.8190    7.6480 F     261  INH261     -0.1660
     24  F2         3.4520   -5.8230    8.0910 F     261  INH261     -0.1660
     25  F1         3.8500   -5.2060    6.0890 F     261  INH261     -0.1660
@<TRIPOS>BOND
     1    21    19    1
     2    18    16    2
     3    19    20    1
     4    19    16    1
     5    11    10    1
     6    16    17    2
     7    16     6    1
     8    10    12    1
     9    10     7    1
    10     8     7    2
    11     1     6   ar
    12     1     2   ar
    13     6     5   ar
    14    25    22    1
    15     7     2    1
    16     7     9    2
    17     2     3   ar
    18     5    22    1
    19     5     4   ar
    20    22    23    1
    21    22    24    1
    22     3     4   ar
    23     3    13    1
    24    14    13    1
    25    13    15    1
