@<TRIPOS>MOLECULE
/tmp/ewbell/vina_2pow_2pow_lig/vina/vina1.pdbqt
 25 25 0 0 0
SMALL
GASTEIGER

@<TRIPOS>ATOM
      1  C1        -4.3950    2.6510   13.7190 C.ar  261  INH261      0.0530
      2  C2        -4.5780    3.8640   13.0500 C.ar  261  INH261      0.1020
      3  C3        -5.3300    4.9140   13.6280 C.ar  261  INH261      0.0490
      4  C4        -5.9040    4.7160   14.8890 C.ar  261  INH261      0.0480
      5  C5        -5.7440    3.4900   15.6020 C.ar  261  INH261      0.0730
      6  C6        -4.9600    2.4400   14.9870 C.ar  261  INH261      0.0960
      7  S1        -3.8490    4.0810   11.4650 S.O2  261  INH261      0.2410
      8  O2        -2.8160    5.0420   11.6600 O.2   261  INH261     -0.2060
      9  O1        -4.9010    4.3610   10.5360 O.2   261  INH261     -0.2060
     10  N1        -3.1920    2.7160   11.0240 N.3   261  INH261     -0.2250
     11  H3        -2.6480    2.6700   10.1870 H     261  INH261      0.1360
     12  H         -3.9520    2.0450   10.9180 H     261  INH261      0.1360
     13  N3        -5.5270    6.1250   13.0040 N.pl3 261  INH261     -0.3980
     14  H7        -6.3680    6.6820   13.2130 H     261  INH261      0.1560
     15  H6        -4.8320    6.4750   12.3270 H     261  INH261      0.1560
     16  S2        -4.6190    0.8380   15.7140 S.O2  261  INH261      0.2570
     17  O4        -5.8220    0.4210   16.3640 O.2   261  INH261     -0.2010
     18  O3        -3.4500    0.9950   16.5270 O.2   261  INH261     -0.2010
     19  N2        -4.3030   -0.2040   14.5800 N.3   261  INH261     -0.3240
     20  H5        -3.4270   -0.1670   14.0980 H     261  INH261      0.1690
     21  H4        -4.9770   -0.9030   14.3410 H     261  INH261      0.1690
     22  C7        -6.3860    3.3460   16.9410 C.3   261  INH261      0.4190
     23  F3        -7.4360    2.5020   16.9570 F     261  INH261     -0.1660
     24  F2        -6.8800    4.5060   17.4030 F     261  INH261     -0.1660
     25  F1        -5.5520    2.9140   17.9000 F     261  INH261     -0.1660
@<TRIPOS>BOND
     1    11    10    1
     2     9     7    2
     3    12    10    1
     4    10     7    1
     5     7     8    2
     6     7     2    1
     7    15    13    1
     8    13    14    1
     9    13     3    1
    10     2     3   ar
    11     2     1   ar
    12     3     4   ar
    13     1     6   ar
    14    20    19    1
    15    21    19    1
    16    19    16    1
    17     4     5   ar
    18     6     5   ar
    19     6    16    1
    20     5    22    1
    21    16    17    2
    22    16    18    2
    23    22    23    1
    24    22    24    1
    25    22    25    1
