@<TRIPOS>MOLECULE
/tmp/ewbell/vina_2pow_2pow_lig/vina/vina5.pdbqt
 25 25 0 0 0
SMALL
GASTEIGER

@<TRIPOS>ATOM
      1  C1        -2.2720    3.7870   12.3790 C.ar  261  INH261      0.0530
      2  C2        -1.4980    4.9500   12.4010 C.ar  261  INH261      0.1020
      3  C3        -1.7840    6.0040   13.3010 C.ar  261  INH261      0.0490
      4  C4        -2.8710    5.8700   14.1710 C.ar  261  INH261      0.0480
      5  C5        -3.6880    4.7000   14.1760 C.ar  261  INH261      0.0730
      6  C6        -3.3620    3.6360   13.2510 C.ar  261  INH261      0.0960
      7  S1        -0.1410    5.0920   11.2910 S.O2  261  INH261      0.2410
      8  O2        -0.3820    6.2910   10.5620 O.2   261  INH261     -0.2060
      9  O1        -0.0260    3.8520   10.5840 O.2   261  INH261     -0.2060
     10  N1         1.1800    5.2700   12.1330 N.3   261  INH261     -0.2250
     11  H3         1.4980    4.5330   12.7280 H     261  INH261      0.1360
     12  H          1.0420    6.0890   12.7270 H     261  INH261      0.1360
     13  N3        -1.0410    7.1620   13.3570 N.pl3 261  INH261     -0.3980
     14  H7        -0.7900    7.5690   14.2700 H     261  INH261      0.1560
     15  H6        -0.7360    7.6220   12.4870 H     261  INH261      0.1560
     16  S2        -4.2410    2.0810   13.1050 S.O2  261  INH261      0.2570
     17  O4        -5.5360    2.3920   12.5860 O.2   261  INH261     -0.2010
     18  O3        -4.1790    1.4510   14.3910 O.2   261  INH261     -0.2010
     19  N2        -3.5160    1.1560   12.0610 N.3   261  INH261     -0.3240
     20  H5        -3.2580    1.5200   11.1660 H     261  INH261      0.1690
     21  H4        -3.3130    0.2040   12.2920 H     261  INH261      0.1690
     22  C7        -4.8340    4.6240   15.1290 C.3   261  INH261      0.4190
     23  F3        -6.0170    4.3590   14.5430 F     261  INH261     -0.1660
     24  F2        -5.0350    5.7790   15.7850 F     261  INH261     -0.1660
     25  F1        -4.6820    3.6980   16.0890 F     261  INH261     -0.1660
@<TRIPOS>BOND
     1     8     7    2
     2     9     7    2
     3    20    19    1
     4     7    10    1
     5     7     2    1
     6    19    21    1
     7    19    16    1
     8    10    12    1
     9    10    11    1
    10     1     2   ar
    11     1     6   ar
    12     2     3   ar
    13    15    13    1
    14    17    16    2
    15    16     6    1
    16    16    18    2
    17     6     5   ar
    18     3    13    1
    19     3     4   ar
    20    13    14    1
    21     4     5   ar
    22     5    22    1
    23    23    22    1
    24    22    24    1
    25    22    25    1
