@<TRIPOS>MOLECULE
/tmp/ewbell/vina_2pow_2pow_lig/vina/vina2.pdbqt
 25 25 0 0 0
SMALL
GASTEIGER

@<TRIPOS>ATOM
      1  C1        -4.8930    1.8450   14.6170 C.ar  261  INH261      0.0530
      2  C2        -5.5700    2.2230   15.7790 C.ar  261  INH261      0.1020
      3  C3        -5.8560    3.5810   16.0530 C.ar  261  INH261      0.0490
      4  C4        -5.4380    4.5540   15.1380 C.ar  261  INH261      0.0480
      5  C5        -4.7400    4.2090   13.9430 C.ar  261  INH261      0.0730
      6  C6        -4.4720    2.8100   13.6880 C.ar  261  INH261      0.0960
      7  S1        -6.0780    0.9770   16.9120 S.O2  261  INH261      0.2410
      8  O2        -5.4040   -0.2040   16.4910 O.2   261  INH261     -0.2060
      9  O1        -7.5090    0.9890   16.9590 O.2   261  INH261     -0.2060
     10  N1        -5.5630    1.3660   18.3510 N.3   261  INH261     -0.2250
     11  H3        -4.9070    2.1110   18.4630 H     261  INH261      0.1360
     12  H         -5.1310    0.5300   18.7440 H     261  INH261      0.1360
     13  N3        -6.5280    3.9920   17.1820 N.pl3 261  INH261     -0.3980
     14  H7        -6.0550    4.5940   17.8720 H     261  INH261      0.1560
     15  H6        -7.5030    3.6970   17.3380 H     261  INH261      0.1560
     16  S2        -3.6300    2.1600   12.2460 S.O2  261  INH261      0.2570
     17  O4        -2.2580    2.5430   12.3670 O.2   261  INH261     -0.2010
     18  O3        -4.3490    2.6340   11.1010 O.2   261  INH261     -0.2010
     19  N2        -3.6900    0.5890   12.2580 N.3   261  INH261     -0.3240
     20  H5        -4.5160    0.1230   12.5780 H     261  INH261      0.1690
     21  H4        -2.9040    0.0560   11.9450 H     261  INH261      0.1690
     22  C7        -4.3200    5.2990   13.0130 C.3   261  INH261      0.4190
     23  F3        -3.0030    5.2980   12.7280 F     261  INH261     -0.1660
     24  F2        -4.5550    6.5220   13.5140 F     261  INH261     -0.1660
     25  F1        -4.9530    5.2770   11.8290 F     261  INH261     -0.1660
@<TRIPOS>BOND
     1    18    16    2
     2    25    22    1
     3    21    19    1
     4    16    19    1
     5    16    17    2
     6    16     6    1
     7    19    20    1
     8    23    22    1
     9    22    24    1
    10    22     5    1
    11     6     5   ar
    12     6     1   ar
    13     5     4   ar
    14     1     2   ar
    15     4     3   ar
    16     2     3   ar
    17     2     7    1
    18     3    13    1
    19     8     7    2
    20     7     9    2
    21     7    10    1
    22    13    15    1
    23    13    14    1
    24    10    11    1
    25    10    12    1
