@<TRIPOS>MOLECULE
/tmp/ewbell/vina_2pow_2pow_lig/vina/vina3.pdbqt
 25 25 0 0 0
SMALL
GASTEIGER

@<TRIPOS>ATOM
      1  C1         6.8600   -5.3130    4.1000 C.ar  261  INH261      0.0530
      2  C2         6.0240   -4.2460    3.7630 C.ar  261  INH261      0.1020
      3  C3         4.8440   -3.9780    4.4980 C.ar  261  INH261      0.0490
      4  C4         4.5170   -4.8110    5.5720 C.ar  261  INH261      0.0480
      5  C5         5.3420   -5.9140    5.9450 C.ar  261  INH261      0.0730
      6  C6         6.5470   -6.1550    5.1800 C.ar  261  INH261      0.0960
      7  S1         6.4600   -3.2190    2.4040 S.O2  261  INH261      0.2410
      8  O2         7.6030   -3.8390    1.8230 O.2   261  INH261     -0.2060
      9  O1         6.5600   -1.8750    2.8880 O.2   261  INH261     -0.2060
     10  N1         5.2820   -3.2470    1.3550 N.3   261  INH261     -0.2250
     11  H3         4.9920   -4.1140    0.9520 H     261  INH261      0.1360
     12  H          5.5630   -2.6420    0.5830 H     261  INH261      0.1360
     13  N3         4.0000   -2.9310    4.2010 N.pl3 261  INH261     -0.3980
     14  H7         3.2330   -3.0640    3.5250 H     261  INH261      0.1560
     15  H6         4.1340   -2.0160    4.6540 H     261  INH261      0.1560
     16  S2         7.7280   -7.4660    5.4880 S.O2  261  INH261      0.2570
     17  O4         6.9970   -8.6940    5.4390 O.2   261  INH261     -0.2010
     18  O3         8.3910   -7.1420    6.7160 O.2   261  INH261     -0.2010
     19  N2         8.7970   -7.5000    4.3360 N.3   261  INH261     -0.3240
     20  H5         9.7720   -7.4990    4.5600 H     261  INH261      0.1690
     21  H4         8.5020   -7.5240    3.3810 H     261  INH261      0.1690
     22  C7         4.9300   -6.7650    7.1000 C.3   261  INH261      0.4190
     23  F3         4.7050   -8.0540    6.7780 F     261  INH261     -0.1660
     24  F2         3.7810   -6.3520    7.6600 F     261  INH261     -0.1660
     25  F1         5.8220   -6.7860    8.1040 F     261  INH261     -0.1660
@<TRIPOS>BOND
     1    12    10    1
     2    11    10    1
     3    10     7    1
     4     8     7    2
     5     7     9    2
     6     7     2    1
     7    21    19    1
     8    14    13    1
     9     2     1   ar
    10     2     3   ar
    11     1     6   ar
    12    13     3    1
    13    13    15    1
    14    19    20    1
    15    19    16    1
    16     3     4   ar
    17     6    16    1
    18     6     5   ar
    19    17    16    2
    20    16    18    2
    21     4     5   ar
    22     5    22    1
    23    23    22    1
    24    22    24    1
    25    22    25    1
