@<TRIPOS>MOLECULE
./ligand/2q89_lig.pdb
 21 21 0 0 0
SMALL
GASTEIGER

@<TRIPOS>ATOM
      1  N1        18.1960   22.0150   31.4680 N.3   260  INH260     -0.2818
      2  C1        17.0450   22.3110   32.3500 C.3   260  INH260      0.1388
      3  C2        16.3760   23.6530   31.9400 C.2   260  INH260      0.3752
      4  O1        16.5880   24.0770   30.7810 O.co2 260  INH260     -0.2445
      5  C3        17.4710   22.2800   33.8380 C.3   260  INH260      0.0935
      6  O2        16.3180   22.2720   34.6690 O.3   260  INH260     -0.3884
      7  C4        18.2350   20.9940   34.1750 C.3   260  INH260      0.0257
      8  O3        15.6550   24.2200   32.7830 O.co2 260  INH260     -0.2445
      9  H1        17.5350   20.1460   34.1300 H     260  INH260      0.0450
     10  H2        18.6650   21.1050   35.1810 H     260  INH260      0.0450
     11  H3        16.2850   21.5260   32.2260 H     260  INH260      0.0605
     12  H4        18.1020   23.1650   34.0060 H     260  INH260      0.0627
     13  H5        18.2000   22.3680   30.5320 H     260  INH260      0.1246
     14  H6        16.5840   22.2700   35.5810 H     260  INH260      0.2099
     15  C5        20.4450   20.9610   30.9830 C.3   260  INH260     -0.0303
     16  N2        19.3380   20.7470   33.2290 N.3   260  INH260     -0.2939
     17  C6        19.2850   21.2470   31.9200 C.3   260  INH260      0.1002
     18  H7        20.0740   20.8920   29.9500 H     260  INH260      0.0261
     19  H8        21.1830   21.7740   31.0540 H     260  INH260      0.0261
     20  H9        20.9190   20.0100   31.2670 H     260  INH260      0.0261
     21  H10       20.1570   20.2010   33.5330 H     260  INH260      0.1238
@<TRIPOS>BOND
     1     1    17    1
     2     1     2    1
     3     1    13    1
     4     2     5    1
     5     2    11    1
     6     2     3    1
     7     3     8   ar
     8     3     4   ar
     9     5     7    1
    10     5     6    1
    11     5    12    1
    12     6    14    1
    13     7    10    1
    14     7     9    1
    15     7    16    1
    16    15    17    1
    17    15    20    1
    18    15    19    1
    19    15    18    1
    20    16    21    1
    21    16    17    1
