@<TRIPOS>MOLECULE
/tmp/ewbell/vina_2q89_2q89_lig/vina/vina1.pdbqt
 15 15 0 0 0
SMALL
GASTEIGER

@<TRIPOS>ATOM
      1  N1        26.1260   16.8050   38.4000 N.3   260  INH260     -0.0820
      2  C1        27.3590   16.7490   39.2180 C.3   260  INH260      0.3000
      3  C3        28.5200   16.1120   38.4170 C.3   260  INH260      0.1750
      4  C4        28.0990   14.7810   37.7820 C.3   260  INH260      0.1500
      5  H5        25.4390   17.5050   38.5980 H     260  INH260      0.2630
      6  C5        24.6230   15.9830   36.5380 C.3   260  INH260      0.0650
      7  N2        26.8440   14.9100   37.0200 N.3   260  INH260     -0.3920
      8  C6        25.9020   15.8950   37.3510 C.3   260  INH260      0.6320
      9  H10       26.6560   14.2680   36.2360 H     260  INH260      0.1550
     10  C2        27.7080   18.1580   39.7740 C.2   260  INH260      0.1730
     11  O3        28.6930   18.7430   39.2850 O.2   260  INH260     -0.6480
     12  O1        26.9890   18.6140   40.6920 O.3   260  INH260     -0.7750
     13  H         26.1210   18.9120   40.5020 H     260  INH260      0.1670
     14  O2        29.5940   15.7970   39.2930 O.3   260  INH260     -0.3910
     15  H6        30.3700   15.5940   38.7840 H     260  INH260      0.2100
@<TRIPOS>BOND
     1     9     7    1
     2     6     8    1
     3     7     8    1
     4     7     4    1
     5     8     1    1
     6     4     3    1
     7     1     5    1
     8     1     2    1
     9     3     2    1
    10     3    14    1
    11    15    14    1
    12     2    10    1
    13    11    10    2
    14    10    12    1
    15    13    12    1
