@<TRIPOS>MOLECULE
/tmp/ewbell/vina_2q89_2q89_lig/vina/vina3.pdbqt
 15 15 0 0 0
SMALL
GASTEIGER

@<TRIPOS>ATOM
      1  N1        10.9570   33.3420   20.0440 N.3   260  INH260     -0.0820
      2  C1        12.0160   33.1190   19.0340 C.3   260  INH260      0.3000
      3  C3        11.7890   34.0160   17.7930 C.3   260  INH260      0.1750
      4  C4        10.3540   33.8930   17.2680 C.3   260  INH260      0.1500
      5  H5        11.1540   33.1640   21.0080 H     260  INH260      0.2630
      6  C5         8.6180   34.0130   20.7390 C.3   260  INH260      0.0650
      7  N2         9.3590   34.0860   18.3380 N.3   260  INH260     -0.3920
      8  C6         9.6790   33.8010   19.6740 C.3   260  INH260      0.6320
      9  H10        8.4190   34.4350   18.1030 H     260  INH260      0.1550
     10  C2        13.4220   33.3090   19.6690 C.2   260  INH260      0.1730
     11  O3        14.3250   33.7720   18.9450 O.2   260  INH260     -0.6480
     12  O1        13.5690   32.9720   20.8660 O.3   260  INH260     -0.7750
     13  H         13.3940   32.0890   21.1290 H     260  INH260      0.1670
     14  O2        12.6270   33.5850   16.7280 O.3   260  INH260     -0.3910
     15  H6        13.5370   33.7060   16.9710 H     260  INH260      0.2100
@<TRIPOS>BOND
     1    14    15    1
     2    14     3    1
     3     4     3    1
     4     4     7    1
     5     3     2    1
     6     9     7    1
     7     7     8    1
     8    11    10    2
     9     2    10    1
    10     2     1    1
    11    10    12    1
    12     8     1    1
    13     8     6    1
    14     1     5    1
    15    12    13    1
