@<TRIPOS>MOLECULE
/tmp/ewbell/vina_2q89_2q89_lig/vina/vina5.pdbqt
 15 15 0 0 0
SMALL
GASTEIGER

@<TRIPOS>ATOM
      1  N1         8.2890   21.6510   22.8000 N.3   260  INH260     -0.0820
      2  C1         6.8560   22.0170   22.8570 C.3   260  INH260      0.3000
      3  C3         6.6510   23.3090   23.6850 C.3   260  INH260      0.1750
      4  C4         7.3540   23.2210   25.0440 C.3   260  INH260      0.1500
      5  H5         8.6280   21.1150   22.0270 H     260  INH260      0.2630
      6  C5        10.6460   21.6440   23.7210 C.3   260  INH260      0.0650
      7  N2         8.7640   22.8120   24.9070 N.3   260  INH260     -0.3920
      8  C6         9.1840   22.0430   23.8130 C.3   260  INH260      0.6320
      9  H10        9.4480   23.0950   25.6240 H     260  INH260      0.1550
     10  C2         6.2620   22.1150   21.4240 C.2   260  INH260      0.1730
     11  O3         6.2130   21.0710   20.7460 O.2   260  INH260     -0.6480
     12  O1         5.8820   23.2410   21.0290 O.3   260  INH260     -0.7750
     13  H          6.1640   24.0150   21.4780 H     260  INH260      0.1670
     14  O2         5.2700   23.4810   23.9760 O.3   260  INH260     -0.3910
     15  H6         4.9130   22.6680   24.3120 H     260  INH260      0.2100
@<TRIPOS>BOND
     1    11    10    2
     2    12    10    1
     3    12    13    1
     4    10     2    1
     5     5     1    1
     6     1     2    1
     7     1     8    1
     8     2     3    1
     9     3    14    1
    10     3     4    1
    11     6     8    1
    12     8     7    1
    13    14    15    1
    14     7     4    1
    15     7     9    1
