@<TRIPOS>MOLECULE
/tmp/ewbell/vina_2q89_2q89_lig/vina/vina4.pdbqt
 15 15 0 0 0
SMALL
GASTEIGER

@<TRIPOS>ATOM
      1  N1        12.4520   32.2030   33.1870 N.3   260  INH260     -0.0820
      2  C1        12.9240   30.8320   32.8880 C.3   260  INH260      0.3000
      3  C3        14.0900   30.4360   33.8260 C.3   260  INH260      0.1750
      4  C4        15.1830   31.5110   33.8460 C.3   260  INH260      0.1500
      5  H5        11.5080   32.4540   32.9720 H     260  INH260      0.2630
      6  C5        12.7840   34.5560   34.0550 C.3   260  INH260      0.0650
      7  N2        14.6300   32.8520   34.1080 N.3   260  INH260     -0.3920
      8  C6        13.3040   33.1590   33.7680 C.3   260  INH260      0.6320
      9  H10       15.2230   33.5710   34.5460 H     260  INH260      0.1550
     10  C2        11.7400   29.8260   32.9360 C.2   260  INH260      0.1730
     11  O3        10.5980   30.2660   32.7030 O.2   260  INH260     -0.6480
     12  O1        12.0020   28.6350   33.2220 O.3   260  INH260     -0.7750
     13  H         12.4250   28.0840   32.5930 H     260  INH260      0.1670
     14  O2        14.7180   29.2570   33.3430 O.3   260  INH260     -0.3910
     15  H6        15.6600   29.3820   33.3280 H     260  INH260      0.2100
@<TRIPOS>BOND
     1    13    12    1
     2    11    10    2
     3     2    10    1
     4     2     1    1
     5     2     3    1
     6    10    12    1
     7     5     1    1
     8     1     8    1
     9    15    14    1
    10    14     3    1
    11     8     6    1
    12     8     7    1
    13     3     4    1
    14     4     7    1
    15     7     9    1
