@<TRIPOS>MOLECULE
/tmp/ewbell/vina_2q89_2q89_lig/vina/vina2.pdbqt
 15 15 0 0 0
SMALL
GASTEIGER

@<TRIPOS>ATOM
      1  N1        28.1050   16.3660   38.4610 N.3   260  INH260     -0.0820
      2  C1        27.4120   17.6720   38.5300 C.3   260  INH260      0.3000
      3  C3        25.8810   17.4900   38.3860 C.3   260  INH260      0.1750
      4  C4        25.5320   16.6320   37.1640 C.3   260  INH260      0.1500
      5  H5        28.9920   16.2580   38.9120 H     260  INH260      0.2630
      6  C5        28.2860   13.9530   37.7230 C.3   260  INH260      0.0650
      7  N2        26.2920   15.3690   37.1460 N.3   260  INH260     -0.3920
      8  C6        27.5420   15.2750   37.7750 C.3   260  INH260      0.6320
      9  H10       25.9010   14.5460   36.6650 H     260  INH260      0.1550
     10  C2        27.8110   18.4330   39.8260 C.2   260  INH260      0.1730
     11  O3        26.9470   18.5530   40.7150 O.2   260  INH260     -0.6480
     12  O1        28.9730   18.8950   39.8930 O.3   260  INH260     -0.7750
     13  H         29.6700   18.4810   39.4220 H     260  INH260      0.1670
     14  O2        25.2650   18.7510   38.1600 O.3   260  INH260     -0.3910
     15  H6        25.7670   19.2390   37.5180 H     260  INH260      0.2100
@<TRIPOS>BOND
     1     9     7    1
     2     7     4    1
     3     7     8    1
     4     4     3    1
     5    15    14    1
     6     6     8    1
     7     8     1    1
     8    14     3    1
     9     3     2    1
    10     1     2    1
    11     1     5    1
    12     2    10    1
    13    13    12    1
    14    10    12    1
    15    10    11    2
