@<TRIPOS>MOLECULE
./ligand/2fdp_lig.pdb
 83 85 0 0 0
SMALL
GASTEIGER

@<TRIPOS>ATOM
      1  C1         6.4360   -3.4430   47.6330 C.ar  380  INH380     -0.0585
      2  C2         5.2030   -3.2140   48.2440 C.ar  380  INH380     -0.0615
      3  C3         6.2860   -3.1240   50.3960 C.ar  380  INH380     -0.0615
      4  C4        14.7320   -6.6620   50.3870 C.ar  380  INH380     -0.0378
      5  C5        14.9530   -6.4920   49.0190 C.ar  380  INH380      0.0336
      6  C6        15.8690   -8.7370   48.9100 C.ar  380  INH380     -0.0247
      7  C7        15.6420   -8.8990   50.2730 C.ar  380  INH380      0.1235
      8  C8        15.0760   -7.8620   51.0100 C.ar  380  INH380     -0.0247
      9  C9        11.3700   -3.1390   47.4280 C.3   380  INH380     -0.0046
     10  C10        8.9240   -3.7690   47.6910 C.3   380  INH380     -0.0040
     11  C11       14.1040   -4.2230   48.8310 C.2   380  INH380      0.2202
     12  C12       10.1190   -3.0290   48.3100 C.3   380  INH380      0.0699
     13  C13        9.9800   -0.8610   49.4780 C.2   380  INH380      0.2445
     14  C14        4.8430    3.0000   50.9840 C.3   380  INH380     -0.0639
     15  C15        4.9770    0.6060   45.3410 C.3   380  INH380     -0.0639
     16  C16        4.1570    1.9000   50.2020 C.3   380  INH380     -0.0400
     17  C17        4.0590    0.7510   46.5360 C.3   380  INH380     -0.0400
     18  C18        4.2710    2.0730   47.2780 C.3   380  INH380      0.0147
     19  C19        5.1400    1.0810   49.3640 C.3   380  INH380      0.0147
     20  C20        6.6200    2.3680   47.8440 C.2   380  INH380      0.2466
     21  C21        8.3560    0.8520   48.7260 C.ar  380  INH380     -0.0375
     22  C22        9.4810    0.5540   49.4830 C.ar  380  INH380      0.0374
     23  C23       10.0910    1.5610   50.2340 C.ar  380  INH380     -0.0496
     24  C24        7.8260    2.1370   48.7070 C.ar  380  INH380      0.0376
     25  C25        8.4390    3.1520   49.4410 C.ar  380  INH380     -0.0496
     26  C26        9.5700    2.8580   50.2080 C.ar  380  INH380     -0.0603
     27  F1        15.9740  -10.0530   50.8790 F     380  INH380     -0.2055
     28  C27       15.5220   -7.5390   48.2920 C.ar  380  INH380     -0.0378
     29  N1        14.6460   -5.3450   48.3450 N.am  380  INH380     -0.2853
     30  O1        13.7960   -4.0460   49.9960 O.2   380  INH380     -0.2752
     31  C28       13.8940   -3.1290   47.8200 C.3   380  INH380      0.0382
     32  C29       15.0500   -2.1360   47.9100 C.3   380  INH380     -0.0539
     33  C30       12.5660   -2.4110   48.0430 C.3   380  INH380      0.0028
     34  N2        11.1000   -2.6300   46.0980 N.4   380  INH380      0.2221
     35  C31        7.6010   -3.5130   48.3950 C.ar  380  INH380     -0.0454
     36  C32        7.5180   -3.3590   49.7830 C.ar  380  INH380     -0.0585
     37  C33        5.1250   -3.0530   49.6270 C.ar  380  INH380     -0.0617
     38  N3         9.7120   -1.6260   48.4130 N.am  380  INH380     -0.3028
     39  O2        10.6000   -1.2740   50.4470 O.2   380  INH380     -0.2702
     40  O3         6.7850    3.0060   46.8190 O.2   380  INH380     -0.2700
     41  N4         5.4190    1.8610   48.1560 N.am  380  INH380     -0.2975
     42  H1         6.4890   -3.5680   46.5570 H     380  INH380      0.0620
     43  H2         4.3030   -3.1610   47.6420 H     380  INH380      0.0618
     44  H3         6.2320   -2.9970   51.4710 H     380  INH380      0.0618
     45  H4        14.2920   -5.8590   50.9670 H     380  INH380      0.0637
     46  H5        16.3140   -9.5390   48.3320 H     380  INH380      0.0647
     47  H6        14.9020   -7.9880   52.0720 H     380  INH380      0.0647
     48  H7        11.6300   -4.2040   47.3420 H     380  INH380      0.0868
     49  H8         9.1310   -4.8490   47.7270 H     380  INH380      0.0333
     50  H9         8.8250   -3.4490   46.6430 H     380  INH380      0.0333
     51  H10       10.3400   -3.4380   49.3070 H     380  INH380      0.0557
     52  H11        4.0950    3.5570   51.5670 H     380  INH380      0.0230
     53  H12        5.3480    3.6850   50.2870 H     380  INH380      0.0230
     54  H13        5.5840    2.5580   51.6660 H     380  INH380      0.0230
     55  H14        4.7850   -0.3570   44.8460 H     380  INH380      0.0230
     56  H15        6.0240    0.6430   45.6760 H     380  INH380      0.0230
     57  H16        4.7900    1.4270   44.6330 H     380  INH380      0.0230
     58  H17        3.4140    2.3550   49.5310 H     380  INH380      0.0278
     59  H18        3.6500    1.2270   50.9090 H     380  INH380      0.0278
     60  H19        4.2510   -0.0790   47.2320 H     380  INH380      0.0278
     61  H20        3.0160    0.7040   46.1880 H     380  INH380      0.0278
     62  H21        3.3790    2.3270   47.8690 H     380  INH380      0.0464
     63  H22        4.4800    2.8830   46.5640 H     380  INH380      0.0464
     64  H23        4.6930    0.1130   49.0950 H     380  INH380      0.0464
     65  H24        6.0690    0.9120   49.9280 H     380  INH380      0.0464
     66  H25        7.8840    0.0710   48.1410 H     380  INH380      0.0633
     67  H26       10.9650    1.3380   50.8350 H     380  INH380      0.0625
     68  H27        8.0420    4.1600   49.4170 H     380  INH380      0.0625
     69  H28       10.0460    3.6410   50.7870 H     380  INH380      0.0618
     70  H29       15.6960   -7.4170   47.2290 H     380  INH380      0.0637
     71  H30       14.8520   -5.3440   47.3660 H     380  INH380      0.1548
     72  H31       13.8840   -3.5750   46.8150 H     380  INH380      0.0393
     73  H32       14.9020   -1.3330   47.1730 H     380  INH380      0.0237
     74  H33       15.9970   -2.6560   47.7010 H     380  INH380      0.0237
     75  H34       15.0840   -1.7040   48.9210 H     380  INH380      0.0237
     76  H35       12.3980   -2.3180   49.1260 H     380  INH380      0.0328
     77  H36       12.6320   -1.4090   47.5950 H     380  INH380      0.0328
     78  H37       10.3100   -3.1180   45.7050 H     380  INH380      0.1997
     79  H38       11.9080   -2.7730   45.5130 H     380  INH380      0.1997
     80  H39       10.8940   -1.6450   46.1510 H     380  INH380      0.1997
     81  H40        8.4160   -3.4230   50.3870 H     380  INH380      0.0620
     82  H41        4.1670   -2.8740   50.1020 H     380  INH380      0.0618
     83  H42        9.2090   -1.2200   47.6500 H     380  INH380      0.1495
@<TRIPOS>BOND
     1     1    35   ar
     2     1    42    1
     3     1     2   ar
     4     2    43    1
     5     2    37   ar
     6     3    37   ar
     7     3    44    1
     8     3    36   ar
     9     4     8   ar
    10     4    45    1
    11     4     5   ar
    12     5    29    1
    13     5    28   ar
    14     6    46    1
    15     6    28   ar
    16     6     7   ar
    17     7    27    1
    18     7     8   ar
    19     8    47    1
    20     9    33    1
    21     9    48    1
    22     9    34    1
    23     9    12    1
    24    10    12    1
    25    10    50    1
    26    10    49    1
    27    10    35    1
    28    11    29   am
    29    11    31    1
    30    11    30    2
    31    12    51    1
    32    12    38    1
    33    13    38   am
    34    13    39    2
    35    13    22    1
    36    14    16    1
    37    14    54    1
    38    14    53    1
    39    14    52    1
    40    15    17    1
    41    15    57    1
    42    15    56    1
    43    15    55    1
    44    16    19    1
    45    16    59    1
    46    16    58    1
    47    17    18    1
    48    17    61    1
    49    17    60    1
    50    18    41    1
    51    18    63    1
    52    18    62    1
    53    19    41    1
    54    19    65    1
    55    19    64    1
    56    20    24    1
    57    20    41   am
    58    20    40    2
    59    21    22   ar
    60    21    66    1
    61    21    24   ar
    62    22    23   ar
    63    23    26   ar
    64    23    67    1
    65    24    25   ar
    66    25    68    1
    67    25    26   ar
    68    26    69    1
    69    28    70    1
    70    29    71    1
    71    31    72    1
    72    31    33    1
    73    31    32    1
    74    32    75    1
    75    32    74    1
    76    32    73    1
    77    33    77    1
    78    33    76    1
    79    34    80    1
    80    34    79    1
    81    34    78    1
    82    35    36   ar
    83    36    81    1
    84    37    82    1
    85    38    83    1
