@<TRIPOS>MOLECULE
/tmp/ewbell/vina_2fdp_2fdp_lig/vina/vina2.pdbqt
 46 48 0 0 0
SMALL
GASTEIGER

@<TRIPOS>ATOM
      1  C12        5.8450   -0.4680   49.0860 C.3   380  INH380      0.1190
      2  C9         5.5230   -0.7500   47.6130 C.3   380  INH380      0.2070
      3  C30        6.0460   -2.1160   47.1670 C.3   380  INH380      0.0480
      4  C28        6.2020   -3.1110   48.3140 C.3   380  INH380      0.0760
      5  C29        5.3200   -4.3330   48.0740 C.3   380  INH380      0.0200
      6  C11        7.6320   -3.5560   48.4650 C.2   380  INH380      0.2260
      7  N1         8.5460   -2.6290   48.1560 N.am  380  INH380     -0.3270
      8  H30        8.1900   -1.7460   47.8520 H     380  INH380      0.1690
      9  O1         7.8850   -4.6820   48.8510 O.2   380  INH380     -0.2730
     10  C5         9.9060   -2.7400   48.2070 C.ar  380  INH380      0.0340
     11  C4        10.6390   -3.5950   47.3800 C.ar  380  INH380      0.0320
     12  C8        12.0280   -3.6590   47.4910 C.ar  380  INH380      0.0440
     13  C7        12.6950   -2.8710   48.4260 C.ar  380  INH380      0.1160
     14  C6        11.9730   -2.0180   49.2560 C.ar  380  INH380      0.0440
     15  F1        14.0340   -2.9370   48.5310 F     380  INH380     -0.2060
     16  C27       10.5870   -1.9560   49.1390 C.ar  380  INH380      0.0320
     17  N2         6.0600    0.2950   46.7660 N.4   380  INH380     -0.0730
     18  H39        5.4870    0.3880   45.9420 H     380  INH380      0.2740
     19  H38        6.0670    1.1670   47.2710 H     380  INH380      0.2740
     20  H37        7.0020    0.0570   46.4950 H     380  INH380      0.2740
     21  C10        4.5740   -0.1770   49.8970 C.3   380  INH380      0.0650
     22  C31        4.3460    1.2980   50.1890 C.ar  380  INH380     -0.0560
     23  C1         4.5210    1.7610   51.4920 C.ar  380  INH380      0.0070
     24  C2         4.3250    3.1080   51.7980 C.ar  380  INH380      0.0010
     25  C33        3.9530    4.0060   50.7990 C.ar  380  INH380      0.0000
     26  C3         3.7790    3.5520   49.4920 C.ar  380  INH380      0.0010
     27  C32        3.9810    2.2040   49.1880 C.ar  380  INH380      0.0070
     28  N3         6.6700    0.7380   49.1870 N.am  380  INH380     -0.3500
     29  C13        7.8660    0.7610   49.7870 C.2   380  INH380      0.2520
     30  O2         8.3650   -0.2310   50.3010 O.2   380  INH380     -0.2680
     31  H42        6.3220    1.5860   48.7880 H     380  INH380      0.1630
     32  C22        8.6110    2.0610   49.8430 C.ar  380  INH380      0.0330
     33  C21        8.0020    3.1860   49.3050 C.ar  380  INH380      0.0340
     34  C24        8.6250    4.4280   49.3470 C.ar  380  INH380      0.0330
     35  C25        9.8910    4.5500   49.9200 C.ar  380  INH380      0.0170
     36  C26       10.5090    3.4210   50.4670 C.ar  380  INH380      0.0020
     37  C23        9.8710    2.1780   50.4340 C.ar  380  INH380      0.0170
     38  C20        7.8980    5.5820   48.7220 C.2   380  INH380      0.2530
     39  N4         7.0710    6.3640   49.4300 N.am  380  INH380     -0.3480
     40  O3         8.0580    5.7570   47.5270 O.2   380  INH380     -0.2670
     41  C18        6.3380    7.4500   48.7820 C.3   380  INH380      0.1250
     42  C17        4.8640    7.0390   48.8090 C.3   380  INH380      0.0150
     43  C15        4.3860    6.5150   47.4720 C.3   380  INH380      0.0060
     44  C19        6.8300    6.2250   50.8680 C.3   380  INH380      0.1250
     45  C16        7.2900    7.5290   51.5210 C.3   380  INH380      0.0150
     46  C14        8.7890    7.5770   51.7220 C.3   380  INH380      0.0060
@<TRIPOS>BOND
     1    18    17    1
     2    20    17    1
     3    17    19    1
     4    17     2    1
     5     3     2    1
     6     3     4    1
     7    11    12   ar
     8    11    10   ar
     9    43    42    1
    10    12    13   ar
    11    40    38    2
    12     2     1    1
    13     8     7    1
    14     5     4    1
    15     7    10    1
    16     7     6   am
    17    10    16   ar
    18     4     6    1
    19    13    15    1
    20    13    14   ar
    21     6     9    2
    22    38    34    1
    23    38    39   am
    24    41    42    1
    25    41    39    1
    26    31    28    1
    27     1    28    1
    28     1    21    1
    29    16    14   ar
    30    28    29   am
    31    27    26   ar
    32    27    22   ar
    33    33    34   ar
    34    33    32   ar
    35    34    35   ar
    36    39    44    1
    37    26    25   ar
    38    29    32    1
    39    29    30    2
    40    32    37   ar
    41    21    22    1
    42    35    36   ar
    43    22    23   ar
    44    37    36   ar
    45    25    24   ar
    46    44    45    1
    47    23    24   ar
    48    45    46    1
