@<TRIPOS>MOLECULE
/tmp/ewbell/vina_2fdp_2fdp_lig/vina/vina5.pdbqt
 46 48 0 0 0
SMALL
GASTEIGER

@<TRIPOS>ATOM
      1  C12        5.3600    0.3850   50.1430 C.3   380  INH380      0.1190
      2  C9         5.2720   -1.1210   50.4230 C.3   380  INH380      0.2070
      3  C30        4.9140   -1.9130   49.1650 C.3   380  INH380      0.0480
      4  C28        5.4880   -3.3280   49.1540 C.3   380  INH380      0.0760
      5  C29        5.2550   -3.9790   47.7940 C.3   380  INH380      0.0200
      6  C11        6.9630   -3.3250   49.4540 C.2   380  INH380      0.2260
      7  N1         7.7230   -2.7070   48.5430 N.am  380  INH380     -0.3270
      8  H30        7.2400   -2.3210   47.7580 H     380  INH380      0.1690
      9  O1         7.3810   -3.8520   50.4690 O.2   380  INH380     -0.2730
     10  C5         9.0780   -2.5390   48.5530 C.ar  380  INH380      0.0340
     11  C4         9.9610   -3.3790   47.8720 C.ar  380  INH380      0.0320
     12  C8        11.3360   -3.1480   47.9310 C.ar  380  INH380      0.0440
     13  C7        11.8370   -2.0790   48.6690 C.ar  380  INH380      0.1160
     14  C6        10.9650   -1.2380   49.3530 C.ar  380  INH380      0.0440
     15  F1        13.1630   -1.8610   48.7240 F     380  INH380     -0.2060
     16  C27        9.5930   -1.4710   49.2890 C.ar  380  INH380      0.0320
     17  N2         4.3110   -1.3870   51.4750 N.4   380  INH380     -0.0730
     18  H39        3.5260   -0.7630   51.3770 H     380  INH380      0.2740
     19  H38        3.9940   -2.3400   51.4080 H     380  INH380      0.2740
     20  H37        4.7470   -1.2400   52.3720 H     380  INH380      0.2740
     21  C10        6.5770    1.0180   50.8350 C.3   380  INH380      0.0650
     22  C31        7.1620    2.2120   50.0960 C.ar  380  INH380     -0.0560
     23  C1         7.9340    1.9860   48.9580 C.ar  380  INH380      0.0070
     24  C2         8.4850    3.0550   48.2520 C.ar  380  INH380      0.0010
     25  C33        8.2650    4.3640   48.6790 C.ar  380  INH380      0.0000
     26  C3         7.4920    4.5990   49.8150 C.ar  380  INH380      0.0010
     27  C32        6.9380    3.5260   50.5170 C.ar  380  INH380      0.0070
     28  N3         4.1860    1.0590   50.7020 N.am  380  INH380     -0.3500
     29  C13        3.5050    2.0080   50.0490 C.2   380  INH380      0.2520
     30  O2         3.8120    2.3870   48.9280 O.2   380  INH380     -0.2680
     31  H42        3.8790    0.7980   51.6160 H     380  INH380      0.1630
     32  C22        2.3280    2.6390   50.7320 C.ar  380  INH380      0.0330
     33  C21        2.1760    2.4310   52.0950 C.ar  380  INH380      0.0340
     34  C24        1.1230    3.0080   52.7950 C.ar  380  INH380      0.0330
     35  C25        0.1880    3.7930   52.1200 C.ar  380  INH380      0.0170
     36  C26        0.3370    4.0090   50.7470 C.ar  380  INH380      0.0020
     37  C23        1.4060    3.4380   50.0510 C.ar  380  INH380      0.0170
     38  C20        1.0300    2.7100   54.2630 C.2   380  INH380      0.2530
     39  N4         0.1610    1.8130   54.7490 N.am  380  INH380     -0.3480
     40  O3         1.7540    3.3500   55.0060 O.2   380  INH380     -0.2670
     41  C18        0.0590    1.5800   56.1890 C.3   380  INH380      0.1250
     42  C17        0.7670    0.2480   56.4510 C.3   380  INH380      0.0150
     43  C15       -0.0610   -0.6860   57.3070 C.3   380  INH380      0.0060
     44  C19       -0.7360    1.0000   53.9250 C.3   380  INH380      0.1250
     45  C16       -2.1630    1.3340   54.3630 C.3   380  INH380      0.0150
     46  C14       -2.8450    2.3010   53.4200 C.3   380  INH380      0.0060
@<TRIPOS>BOND
     1     8     7    1
     2     5     4    1
     3    11    12   ar
     4    11    10   ar
     5    12    13   ar
     6    24    25   ar
     7    24    23   ar
     8     7    10    1
     9     7     6   am
    10    10    16   ar
    11    13    15    1
    12    13    14   ar
    13    25    26   ar
    14    30    29    2
    15    23    22   ar
    16     4     3    1
    17     4     6    1
    18     3     2    1
    19    16    14   ar
    20     6     9    2
    21    26    27   ar
    22    29    28   am
    23    29    32    1
    24    37    32   ar
    25    37    36   ar
    26    22    27   ar
    27    22    21    1
    28     1     2    1
    29     1    28    1
    30     1    21    1
    31     2    17    1
    32    28    31    1
    33    32    33   ar
    34    36    35   ar
    35    18    17    1
    36    19    17    1
    37    17    20    1
    38    33    34   ar
    39    35    34   ar
    40    34    38    1
    41    46    45    1
    42    44    45    1
    43    44    39    1
    44    38    39   am
    45    38    40    2
    46    39    41    1
    47    41    42    1
    48    42    43    1
