@<TRIPOS>MOLECULE
/tmp/ewbell/vina_2fdp_2fdp_lig/vina/vina3.pdbqt
 46 48 0 0 0
SMALL
GASTEIGER

@<TRIPOS>ATOM
      1  C12        5.3120   -0.5400   50.2250 C.3   380  INH380      0.1190
      2  C9         4.7000    0.0360   51.5090 C.3   380  INH380      0.2070
      3  C30        4.6320    1.5620   51.4730 C.3   380  INH380      0.0480
      4  C28        4.0120    2.1130   50.1910 C.3   380  INH380      0.0760
      5  C29        2.6210    2.6700   50.4760 C.3   380  INH380      0.0200
      6  C11        4.8650    3.1970   49.5900 C.2   380  INH380      0.2260
      7  N1         6.1660    3.1240   49.8910 N.am  380  INH380     -0.3270
      8  H30        6.4360    2.3680   50.4870 H     380  INH380      0.1690
      9  O1         4.3610    4.0490   48.8800 O.2   380  INH380     -0.2730
     10  C5         7.1720    3.9540   49.4860 C.ar  380  INH380      0.0340
     11  C4         7.5610    4.0950   48.1520 C.ar  380  INH380      0.0320
     12  C8         8.6010    4.9590   47.8120 C.ar  380  INH380      0.0440
     13  C7         9.2600    5.6880   48.7990 C.ar  380  INH380      0.1160
     14  C6         8.8820    5.5510   50.1320 C.ar  380  INH380      0.0440
     15  F1        10.2640    6.5180   48.4680 F     380  INH380     -0.2060
     16  C27        7.8400    4.6890   50.4660 C.ar  380  INH380      0.0320
     17  N2         5.4460   -0.4070   52.6700 N.4   380  INH380     -0.0730
     18  H39        6.4180   -0.5100   52.4250 H     380  INH380      0.2740
     19  H38        5.3560    0.2730   53.4080 H     380  INH380      0.2740
     20  H37        5.0840   -1.2940   52.9840 H     380  INH380      0.2740
     21  C10        5.1110   -2.0600   50.1350 C.3   380  INH380      0.0650
     22  C31        6.1210   -2.7690   49.2450 C.ar  380  INH380     -0.0560
     23  C1         7.1650   -3.4740   49.8420 C.ar  380  INH380      0.0070
     24  C2         8.1080   -4.1400   49.0600 C.ar  380  INH380      0.0010
     25  C33        8.0130   -4.1080   47.6690 C.ar  380  INH380      0.0000
     26  C3         6.9690   -3.4080   47.0640 C.ar  380  INH380      0.0010
     27  C32        6.0240   -2.7460   47.8500 C.ar  380  INH380      0.0070
     28  N3         6.7610   -0.3260   50.2320 N.am  380  INH380     -0.3500
     29  C13        7.4270    0.2240   49.2100 C.2   380  INH380      0.2520
     30  O2         6.8720    0.5930   48.1850 O.2   380  INH380     -0.2680
     31  H42        7.2780   -0.6060   51.0410 H     380  INH380      0.1630
     32  C22        8.9150    0.3750   49.3260 C.ar  380  INH380      0.0330
     33  C21        9.7090   -0.7110   48.9860 C.ar  380  INH380      0.0340
     34  C24       11.0960   -0.6300   49.0450 C.ar  380  INH380      0.0330
     35  C25       11.7050    0.5500   49.4720 C.ar  380  INH380      0.0170
     36  C26       10.9100    1.6480   49.8140 C.ar  380  INH380      0.0020
     37  C23        9.5170    1.5650   49.7390 C.ar  380  INH380      0.0170
     38  C20       11.8710   -1.8620   48.6760 C.2   380  INH380      0.2530
     39  N4        13.1420   -1.7980   48.2570 N.am  380  INH380     -0.3480
     40  O3        11.2810   -2.9270   48.7350 O.2   380  INH380     -0.2670
     41  C18       13.8560   -3.0100   47.8580 C.3   380  INH380      0.1250
     42  C17       14.4840   -3.5690   49.1370 C.3   380  INH380      0.0150
     43  C15       14.1760   -5.0380   49.3360 C.3   380  INH380      0.0060
     44  C19       13.9220   -0.5610   48.1660 C.3   380  INH380      0.1250
     45  C16       15.1980   -0.9000   47.3930 C.3   380  INH380      0.0150
     46  C14       16.4460   -0.4210   48.1020 C.3   380  INH380      0.0060
@<TRIPOS>BOND
     1    26    25   ar
     2    26    27   ar
     3    45    46    1
     4    45    44    1
     5    25    24   ar
     6    12    11   ar
     7    12    13   ar
     8    27    22   ar
     9    41    39    1
    10    41    42    1
    11    11    10   ar
    12    44    39    1
    13    30    29    2
    14    39    38   am
    15    15    13    1
    16    38    40    2
    17    38    34    1
    18    13    14   ar
    19     9     6    2
    20    33    34   ar
    21    33    32   ar
    22    34    35   ar
    23    24    23   ar
    24    42    43    1
    25    29    32    1
    26    29    28   am
    27    22    23   ar
    28    22    21    1
    29    32    37   ar
    30    35    36   ar
    31    10     7    1
    32    10    16   ar
    33     6     7   am
    34     6     4    1
    35    37    36   ar
    36     7     8    1
    37    14    16   ar
    38    21     1    1
    39     4     5    1
    40     4     3    1
    41     1    28    1
    42     1     2    1
    43    28    31    1
    44     3     2    1
    45     2    17    1
    46    18    17    1
    47    17    20    1
    48    17    19    1
