@<TRIPOS>MOLECULE
/tmp/ewbell/vina_2fdp_2fdp_lig/vina/vina4.pdbqt
 46 48 0 0 0
SMALL
GASTEIGER

@<TRIPOS>ATOM
      1  C12        5.2210   -0.4770   50.5750 C.3   380  INH380      0.1190
      2  C9         6.1230    0.3350   49.6350 C.3   380  INH380      0.2070
      3  C30        7.5830    0.3110   50.0860 C.3   380  INH380      0.0480
      4  C28        8.5750    0.2140   48.9290 C.3   380  INH380      0.0760
      5  C29        9.1690    1.5870   48.6290 C.3   380  INH380      0.0200
      6  C11        9.6880   -0.7490   49.2390 C.2   380  INH380      0.2260
      7  N1        10.4030   -1.1450   48.1800 N.am  380  INH380     -0.3270
      8  H30       10.1220   -0.7700   47.2960 H     380  INH380      0.1690
      9  O1         9.8880   -1.1040   50.3860 O.2   380  INH380     -0.2730
     10  C5        11.4700   -1.9970   48.1550 C.ar  380  INH380      0.0340
     11  C4        11.3720   -3.3390   47.7790 C.ar  380  INH380      0.0320
     12  C8        12.5050   -4.1530   47.7820 C.ar  380  INH380      0.0440
     13  C7        13.7410   -3.6340   48.1600 C.ar  380  INH380      0.1160
     14  C6        13.8470   -2.3000   48.5400 C.ar  380  INH380      0.0440
     15  F1        14.8300   -4.4230   48.1640 F     380  INH380     -0.2060
     16  C27       12.7140   -1.4900   48.5320 C.ar  380  INH380      0.0320
     17  N2         5.6500    1.7010   49.5320 N.4   380  INH380     -0.0730
     18  H39        4.8500    1.7340   48.9200 H     380  INH380      0.2740
     19  H38        5.3890    2.0370   50.4450 H     380  INH380      0.2740
     20  H37        6.3840    2.2830   49.1570 H     380  INH380      0.2740
     21  C10        4.7360   -1.7740   49.9120 C.3   380  INH380      0.0650
     22  C31        5.8390   -2.5860   49.2510 C.ar  380  INH380     -0.0560
     23  C1         5.9170   -2.6080   47.8600 C.ar  380  INH380      0.0070
     24  C2         6.9170   -3.3380   47.2180 C.ar  380  INH380      0.0010
     25  C33        7.8520   -4.0540   47.9660 C.ar  380  INH380      0.0000
     26  C3         7.7820   -4.0350   49.3580 C.ar  380  INH380      0.0010
     27  C32        6.7830   -3.2990   49.9980 C.ar  380  INH380      0.0070
     28  N3         4.0130    0.2920   50.8830 N.am  380  INH380     -0.3500
     29  C13        3.7710    0.8280   52.0850 C.2   380  INH380      0.2520
     30  O2         4.5460    0.7160   53.0250 O.2   380  INH380     -0.2680
     31  H42        3.3360    0.4230   50.1600 H     380  INH380      0.1630
     32  C22        2.4890    1.5800   52.2860 C.ar  380  INH380      0.0330
     33  C21        1.6280    1.1460   53.2840 C.ar  380  INH380      0.0340
     34  C24        0.4360    1.8140   53.5410 C.ar  380  INH380      0.0330
     35  C25        0.0830    2.9250   52.7750 C.ar  380  INH380      0.0170
     36  C26        0.9480    3.3690   51.7710 C.ar  380  INH380      0.0020
     37  C23        2.1510    2.7020   51.5260 C.ar  380  INH380      0.0170
     38  C20       -0.4400    1.2600   54.6270 C.2   380  INH380      0.2530
     39  N4        -0.3110    1.6420   55.9050 N.am  380  INH380     -0.3480
     40  O3        -1.2540    0.4110   54.3040 O.2   380  INH380     -0.2670
     41  C18       -1.1450    1.0480   56.9470 C.3   380  INH380      0.1250
     42  C17       -0.4310   -0.2360   57.3780 C.3   380  INH380      0.0150
     43  C15       -0.7470   -0.6210   58.8070 C.3   380  INH380      0.0060
     44  C19        0.6350    2.6590   56.3720 C.3   380  INH380      0.1250
     45  C16        1.8700    1.9130   56.8800 C.3   380  INH380      0.0150
     46  C14        3.1450    2.3880   56.2170 C.3   380  INH380      0.0060
@<TRIPOS>BOND
     1    24    23   ar
     2    24    25   ar
     3     8     7    1
     4    11    12   ar
     5    11    10   ar
     6    12    13   ar
     7    23    22   ar
     8    25    26   ar
     9    10     7    1
    10    10    16   ar
    11    13    15    1
    12    13    14   ar
    13     7     6   am
    14    16    14   ar
    15     5     4    1
    16    18    17    1
    17     4     6    1
    18     4     3    1
    19    20    17    1
    20     6     9    2
    21    22    21    1
    22    22    27   ar
    23    26    27   ar
    24    17     2    1
    25    17    19    1
    26     2     3    1
    27     2     1    1
    28    21     1    1
    29    31    28    1
    30     1    28    1
    31    28    29   am
    32    37    36   ar
    33    37    32   ar
    34    36    35   ar
    35    29    32    1
    36    29    30    2
    37    32    33   ar
    38    35    34   ar
    39    33    34   ar
    40    34    38    1
    41    40    38    2
    42    38    39   am
    43    39    44    1
    44    39    41    1
    45    46    45    1
    46    44    45    1
    47    41    42    1
    48    42    43    1
