@<TRIPOS>MOLECULE
/tmp/ewbell/vina_2fdp_2fdp_lig/vina/vina1.pdbqt
 46 48 0 0 0
SMALL
GASTEIGER

@<TRIPOS>ATOM
      1  C12        9.7650   -1.4500   48.8950 C.3   380  INH380      0.1190
      2  C9         9.3760   -0.1080   49.5300 C.3   380  INH380      0.2070
      3  C30        8.8380    0.8770   48.4930 C.3   380  INH380      0.0480
      4  C28        7.3180    0.8450   48.3550 C.3   380  INH380      0.0760
      5  C29        6.6730    0.5250   49.7000 C.3   380  INH380      0.0200
      6  C11        6.7830    2.1580   47.8500 C.2   380  INH380      0.2260
      7  N1         6.6390    3.1040   48.7850 N.am  380  INH380     -0.3270
      8  H30        6.8910    2.8430   49.7160 H     380  INH380      0.1690
      9  O1         6.5250    2.3000   46.6690 O.2   380  INH380     -0.2730
     10  C5         6.1910    4.3840   48.6240 C.ar  380  INH380      0.0340
     11  C4         7.0390    5.4770   48.4340 C.ar  380  INH380      0.0320
     12  C8         6.5090    6.7590   48.2810 C.ar  380  INH380      0.0440
     13  C7         5.1310    6.9580   48.3170 C.ar  380  INH380      0.1160
     14  C6         4.2790    5.8750   48.5090 C.ar  380  INH380      0.0440
     15  F1         4.6250    8.1950   48.1710 F     380  INH380     -0.2060
     16  C27        4.8120    4.5970   48.6580 C.ar  380  INH380      0.0320
     17  N2        10.5050    0.4680   50.2320 N.4   380  INH380     -0.0730
     18  H39       10.4280    0.2640   51.2160 H     380  INH380      0.2740
     19  H38       11.3610    0.0750   49.8740 H     380  INH380      0.2740
     20  H37       10.5110    1.4670   50.0960 H     380  INH380      0.2740
     21  C10        9.1140   -2.6320   49.6280 C.3   380  INH380      0.0650
     22  C31        7.6900   -2.9310   49.1850 C.ar  380  INH380     -0.0560
     23  C1         7.4430   -3.1810   47.8360 C.ar  380  INH380      0.0070
     24  C2         6.1510   -3.4620   47.3930 C.ar  380  INH380      0.0010
     25  C33        5.0910   -3.4980   48.2990 C.ar  380  INH380      0.0000
     26  C3         5.3310   -3.2520   49.6510 C.ar  380  INH380      0.0010
     27  C32        6.6260   -2.9750   50.0920 C.ar  380  INH380      0.0070
     28  N3        11.2110   -1.6500   49.0160 N.am  380  INH380     -0.3500
     29  C13       11.9410   -2.3020   48.1020 C.2   380  INH380      0.2520
     30  O2        11.4520   -2.7830   47.0900 O.2   380  INH380     -0.2680
     31  H42       11.6760   -1.2830   49.8210 H     380  INH380      0.1630
     32  C22       13.4120   -2.4590   48.3450 C.ar  380  INH380      0.0330
     33  C21       13.8210   -3.3860   49.2940 C.ar  380  INH380      0.0340
     34  C24       15.1710   -3.6010   49.5490 C.ar  380  INH380      0.0330
     35  C25       16.1340   -2.8640   48.8610 C.ar  380  INH380      0.0170
     36  C26       15.7290   -1.9320   47.9010 C.ar  380  INH380      0.0020
     37  C23       14.3710   -1.7290   47.6390 C.ar  380  INH380      0.0170
     38  C20       15.5160   -4.6090   50.6070 C.2   380  INH380      0.2530
     39  N4        15.6960   -5.9050   50.3170 N.am  380  INH380     -0.3480
     40  O3        15.5880   -4.2060   51.7550 O.2   380  INH380     -0.2670
     41  C18       15.9830   -6.8720   51.3750 C.3   380  INH380      0.1250
     42  C17       17.5060   -6.8990   51.5180 C.3   380  INH380      0.0150
     43  C15       18.1200   -8.1450   50.9170 C.3   380  INH380      0.0060
     44  C19       15.6340   -6.4660   48.9650 C.3   380  INH380      0.1250
     45  C16       14.7130   -7.6850   49.0340 C.3   380  INH380      0.0150
     46  C14       15.3690   -8.9370   48.4930 C.3   380  INH380      0.0060
@<TRIPOS>BOND
     1     9     6    2
     2    30    29    2
     3    24    23   ar
     4    24    25   ar
     5    37    36   ar
     6    37    32   ar
     7    23    22   ar
     8     6     4    1
     9     6     7   am
    10    36    35   ar
    11    29    32    1
    12    29    28   am
    13    15    13    1
    14    12    13   ar
    15    12    11   ar
    16    25    26   ar
    17    13    14   ar
    18    32    33   ar
    19     4     3    1
    20     4     5    1
    21    11    10   ar
    22    46    45    1
    23     3     2    1
    24    14    16   ar
    25    10    16   ar
    26    10     7    1
    27     7     8    1
    28    35    34   ar
    29     1    28    1
    30     1     2    1
    31     1    21    1
    32    44    45    1
    33    44    39    1
    34    28    31    1
    35    22    21    1
    36    22    27   ar
    37    33    34   ar
    38     2    17    1
    39    34    38    1
    40    26    27   ar
    41    19    17    1
    42    20    17    1
    43    17    18    1
    44    39    38   am
    45    39    41    1
    46    38    40    2
    47    43    42    1
    48    41    42    1
