@<TRIPOS>MOLECULE
./ligand/2qi5_lig.pdb
 80 82 0 0 0
SMALL
GASTEIGER

@<TRIPOS>ATOM
      1  O1        18.6240   33.2560   13.5970 O.2   203  INH203     -0.1528
      2  S1        18.1460   32.4480   14.6710 S.O2  203  INH203      0.0610
      3  O2        17.4000   31.3250   14.1640 O.2   203  INH203     -0.1528
      4  C1        17.2080   33.2970   15.6800 C.ar  203  INH203      0.1067
      5  C2        16.2220   32.6100   16.3830 C.ar  203  INH203     -0.0333
      6  C3        15.3930   33.2710   17.2860 C.ar  203  INH203     -0.0334
      7  C4        17.3370   34.6760   15.9100 C.ar  203  INH203     -0.0195
      8  C5        16.4900   35.3510   16.8070 C.ar  203  INH203      0.0408
      9  C6        15.5200   34.6350   17.5030 C.ar  203  INH203      0.0783
     10  N1        14.8430   35.4600   18.3420 N.ar  203  INH203     -0.2474
     11  S2        16.5660   37.0220   17.1350 S.2   203  INH203     -0.0754
     12  C7        15.2630   36.7470   18.2530 C.ar  203  INH203      0.0659
     13  N2        19.4280   31.8300   15.4360 N.3   203  INH203     -0.1741
     14  C8        20.0930   32.8040   16.3140 C.3   203  INH203      0.0206
     15  C9        21.5970   32.5090   16.3670 C.3   203  INH203     -0.0386
     16  C10       22.3430   33.6490   17.0670 C.3   203  INH203     -0.0521
     17  C11       22.2900   35.0280   16.4010 C.3   203  INH203     -0.0559
     18  C12       22.7110   34.9970   14.9460 C.3   203  INH203     -0.0653
     19  C13       19.1400   30.5370   16.0960 C.3   203  INH203      0.0482
     20  C14       20.0510   29.4540   15.5080 C.3   203  INH203      0.0881
     21  O3        20.0530   28.3480   16.4180 O.3   203  INH203     -0.3886
     22  C15       19.6500   29.0060   14.0920 C.3   203  INH203      0.0543
     23  N3        20.7120   28.2390   13.4590 N.am  203  INH203     -0.3081
     24  C16       21.4930   28.6330   12.4470 C.2   203  INH203      0.2339
     25  O4        21.4830   29.7260   11.9150 O.2   203  INH203     -0.2738
     26  C17       22.4380   27.5660   11.9580 C.3   203  INH203      0.1016
     27  C18       23.8420   28.0730   11.6990 C.3   203  INH203     -0.0197
     28  C19       24.7720   26.9320   11.2630 C.3   203  INH203     -0.0605
     29  C20       24.3630   28.7670   12.9480 C.3   203  INH203     -0.0605
     30  N4        21.9300   26.8710   10.7870 N.am  203  INH203     -0.3040
     31  C21       21.6850   25.5630   10.8050 C.2   203  INH203      0.2105
     32  O5        21.8350   24.8590   11.8050 O.2   203  INH203     -0.2761
     33  C22       21.2180   25.0190    9.4880 C.3   203  INH203      0.0122
     34  C23       18.3610   28.1810   14.0610 C.3   203  INH203     -0.0067
     35  C24       17.9990   27.8080   12.6430 C.ar  203  INH203     -0.0455
     36  C25       18.2310   26.5150   12.1850 C.ar  203  INH203     -0.0585
     37  C26       17.9230   26.1670   10.8730 C.ar  203  INH203     -0.0615
     38  C27       17.3640   27.1070   10.0220 C.ar  203  INH203     -0.0617
     39  C28       17.1220   28.3990   10.4720 C.ar  203  INH203     -0.0615
     40  C29       17.4390   28.7450   11.7830 C.ar  203  INH203     -0.0585
     41  H1        16.0980   31.5450   16.2250 H     203  INH203      0.0638
     42  H2        14.6380   32.7120   17.8270 H     203  INH203      0.0640
     43  H3        18.1050   35.2320   15.3850 H     203  INH203      0.0649
     44  H4        14.8170   37.5490   18.8390 H     203  INH203      0.0907
     45  H5        19.6700   32.7320   17.3270 H     203  INH203      0.0444
     46  H6        19.9330   33.8190   15.9220 H     203  INH203      0.0444
     47  H7        21.9810   32.4010   15.3420 H     203  INH203      0.0278
     48  H8        21.7630   31.5740   16.9210 H     203  INH203      0.0278
     49  H9        23.4010   33.3570   17.1410 H     203  INH203      0.0266
     50  H10       21.9190   33.7520   18.0770 H     203  INH203      0.0266
     51  H11       22.9620   35.7070   16.9460 H     203  INH203      0.0263
     52  H12       21.2590   35.4070   16.4600 H     203  INH203      0.0263
     53  H13       22.6520   36.0120   14.5260 H     203  INH203      0.0230
     54  H14       22.0420   34.3280   14.3850 H     203  INH203      0.0230
     55  H15       23.7450   34.6290   14.8710 H     203  INH203      0.0230
     56  H16       19.3260   30.6270   17.1770 H     203  INH203      0.0470
     57  H17       18.0880   30.2640   15.9260 H     203  INH203      0.0470
     58  H18       21.0710   29.8610   15.4480 H     203  INH203      0.0625
     59  H19       19.1760   27.9860   16.4790 H     203  INH203      0.2099
     60  H20       19.4820   29.9160   13.4970 H     203  INH203      0.0527
     61  H21       20.8750   27.3200   13.8180 H     203  INH203      0.1491
     62  H22       22.5120   26.8230   12.7660 H     203  INH203      0.0597
     63  H23       23.8010   28.8100   10.8830 H     203  INH203      0.0318
     64  H24       25.7810   27.3300   11.0830 H     203  INH203      0.0233
     65  H25       24.3870   26.4780   10.3380 H     203  INH203      0.0233
     66  H26       24.8140   26.1700   12.0560 H     203  INH203      0.0233
     67  H27       23.6750   29.5770   13.2320 H     203  INH203      0.0233
     68  H28       25.3590   29.1870   12.7460 H     203  INH203      0.0233
     69  H29       24.4320   28.0390   13.7700 H     203  INH203      0.0233
     70  H30       21.7600   27.3880    9.9480 H     203  INH203      0.1494
     71  H31       21.0370   23.9380    9.5810 H     203  INH203      0.0322
     72  H32       21.9890   25.1970    8.7240 H     203  INH203      0.0322
     73  H33       20.2860   25.5230    9.1930 H     203  INH203      0.0322
     74  H34       18.5060   27.2630   14.6500 H     203  INH203      0.0332
     75  H35       17.5430   28.7720   14.4990 H     203  INH203      0.0332
     76  H36       18.6540   25.7740   12.8540 H     203  INH203      0.0620
     77  H37       18.1200   25.1620   10.5170 H     203  INH203      0.0618
     78  H38       17.1150   26.8340    9.0030 H     203  INH203      0.0618
     79  H39       16.6880   29.1350    9.8050 H     203  INH203      0.0618
     80  H40       17.2480   29.7520   12.1350 H     203  INH203      0.0620
@<TRIPOS>BOND
     1     1     2    2
     2     2    13    1
     3     2     4    1
     4     2     3    2
     5     4     7   ar
     6     4     5   ar
     7     5    41    1
     8     5     6   ar
     9     6    42    1
    10     6     9   ar
    11     7     8   ar
    12     7    43    1
    13     8     9   ar
    14     8    11   ar
    15     9    10   ar
    16    10    12   ar
    17    11    12   ar
    18    12    44    1
    19    13    19    1
    20    13    14    1
    21    14    46    1
    22    14    45    1
    23    14    15    1
    24    15    48    1
    25    15    47    1
    26    15    16    1
    27    16    50    1
    28    16    49    1
    29    16    17    1
    30    17    52    1
    31    17    51    1
    32    17    18    1
    33    18    55    1
    34    18    54    1
    35    18    53    1
    36    19    57    1
    37    19    56    1
    38    19    20    1
    39    20    58    1
    40    20    22    1
    41    20    21    1
    42    21    59    1
    43    22    60    1
    44    22    34    1
    45    22    23    1
    46    23    61    1
    47    23    24   am
    48    24    26    1
    49    24    25    2
    50    26    62    1
    51    26    30    1
    52    26    27    1
    53    27    63    1
    54    27    29    1
    55    27    28    1
    56    28    66    1
    57    28    65    1
    58    28    64    1
    59    29    69    1
    60    29    68    1
    61    29    67    1
    62    30    70    1
    63    30    31   am
    64    31    33    1
    65    31    32    2
    66    33    73    1
    67    33    72    1
    68    33    71    1
    69    34    75    1
    70    34    74    1
    71    34    35    1
    72    35    40   ar
    73    35    36   ar
    74    36    76    1
    75    36    37   ar
    76    37    77    1
    77    37    38   ar
    78    38    78    1
    79    38    39   ar
    80    39    79    1
    81    39    40   ar
    82    40    80    1
