@<TRIPOS>MOLECULE
/tmp/ewbell/vina_2qi5_2qi5_lig/vina/vina4.pdbqt
 44 46 0 0 0
SMALL
GASTEIGER

@<TRIPOS>ATOM
      1  C14       19.3720   39.2460   16.7710 C.3   203  INH203      0.1550
      2  C13       18.7620   38.6470   18.0430 C.3   203  INH203      0.1410
      3  N2        18.3220   37.2600   17.7690 N.3   203  INH203     -0.2040
      4  S1        19.3390   36.1480   18.3520 S.O2  203  INH203      0.2430
      5  O1        20.1600   36.7780   19.3350 O.2   203  INH203     -0.2060
      6  O2        18.5190   35.1300   18.9580 O.2   203  INH203     -0.2060
      7  C1        20.2280   35.4830   17.1750 C.ar  203  INH203      0.0760
      8  C4        19.9200   34.2680   16.5420 C.ar  203  INH203      0.0460
      9  C5        20.7410   33.7440   15.5270 C.ar  203  INH203      0.0340
     10  C6        21.8970   34.4270   15.1600 C.ar  203  INH203      0.0490
     11  S2        20.4370   32.2870   14.6960 S.3   203  INH203     -0.0830
     12  C3        22.2100   35.6240   15.7890 C.ar  203  INH203      0.0320
     13  N1        22.5640   33.7350   14.2010 N.pl3 203  INH203     -0.3590
     14  C2        21.3840   36.1490   16.7790 C.ar  203  INH203      0.0270
     15  C7        21.9180   32.5990   13.8390 C.3   203  INH203      0.1390
     16  H1        23.4510   34.0370   13.7980 H     203  INH203      0.1660
     17  C8        16.9230   37.0040   18.1370 C.3   203  INH203      0.1070
     18  C9        16.1470   36.5140   16.9080 C.3   203  INH203      0.0150
     19  C10       14.9580   35.6470   17.3350 C.3   203  INH203      0.0010
     20  C11       15.2500   34.1810   17.6710 C.3   203  INH203     -0.0050
     21  C12       16.0000   33.4610   16.5690 C.3   203  INH203      0.0050
     22  C15       20.5830   40.1570   17.0320 C.3   203  INH203      0.1180
     23  C23       21.0180   40.1810   18.4990 C.3   203  INH203      0.0660
     24  C24       22.5110   39.9940   18.6180 C.ar  203  INH203     -0.0560
     25  C29       23.2750   40.8530   19.3980 C.ar  203  INH203      0.0070
     26  C28       24.6500   40.6660   19.5150 C.ar  203  INH203      0.0010
     27  C27       25.2620   39.6140   18.8460 C.ar  203  INH203      0.0000
     28  C26       24.5080   38.7510   18.0670 C.ar  203  INH203      0.0010
     29  C25       23.1340   38.9460   17.9460 C.ar  203  INH203      0.0070
     30  N3        20.3230   41.5210   16.5990 N.am  203  INH203     -0.3520
     31  H21       19.5030   41.9590   16.9670 H     203  INH203      0.1630
     32  C16       21.0650   42.2530   15.7590 C.2   203  INH203      0.2410
     33  O4        20.8430   43.3970   15.4140 O.2   203  INH203     -0.2710
     34  C17       22.2640   41.5210   15.2150 C.3   203  INH203      0.1790
     35  N4        22.1150   41.1830   13.8090 N.am  203  INH203     -0.3480
     36  H30       22.2110   41.9010   13.1210 H     203  INH203      0.1630
     37  C21       21.8520   39.9380   13.4170 C.2   203  INH203      0.2140
     38  C22       21.7440   39.7850   11.9290 C.3   203  INH203      0.1170
     39  O5        21.7180   38.9940   14.1990 O.2   203  INH203     -0.2740
     40  C18       23.5730   42.2500   15.4420 C.3   203  INH203      0.0090
     41  C20       23.4980   43.0170   16.7530 C.3   203  INH203      0.0120
     42  C19       24.7610   41.2780   15.4280 C.3   203  INH203      0.0120
     43  O3        18.3330   39.9530   16.0840 O.3   203  INH203     -0.3920
     44  H19       18.6910   40.7430   15.6950 H     203  INH203      0.2100
@<TRIPOS>BOND
     1    38    37    1
     2    36    35    1
     3    37    35   am
     4    37    39    2
     5    16    13    1
     6    35    34    1
     7    15    13    1
     8    15    11    1
     9    13    10    1
    10    11     9    1
    11    10     9   ar
    12    10    12   ar
    13    34    40    1
    14    34    32    1
    15    33    32    2
    16    42    40    1
    17    40    41    1
    18     9     8   ar
    19    44    43    1
    20    32    30   am
    21    12    14   ar
    22    43     1    1
    23     8     7   ar
    24    21    20    1
    25    30    31    1
    26    30    22    1
    27     1    22    1
    28     1     2    1
    29    14     7   ar
    30    18    19    1
    31    18    17    1
    32    22    23    1
    33     7     4    1
    34    19    20    1
    35     3     2    1
    36     3    17    1
    37     3     4    1
    38    29    28   ar
    39    29    24   ar
    40    28    27   ar
    41     4     6    2
    42     4     5    2
    43    23    24    1
    44    24    25   ar
    45    27    26   ar
    46    25    26   ar
