@<TRIPOS>MOLECULE
/tmp/ewbell/vina_2qi5_2qi5_lig/vina/vina1.pdbqt
 44 46 0 0 0
SMALL
GASTEIGER

@<TRIPOS>ATOM
      1  C14       18.5000   35.5410   18.0280 C.3   203  INH203      0.1550
      2  C13       19.8450   35.9170   17.3960 C.3   203  INH203      0.1410
      3  N2        20.7860   34.7820   17.5360 N.3   203  INH203     -0.2040
      4  S1        21.2850   34.1980   16.1150 S.O2  203  INH203      0.2430
      5  O1        21.0290   35.1880   15.1190 O.2   203  INH203     -0.2060
      6  O2        22.7020   33.9720   16.2470 O.2   203  INH203     -0.2060
      7  C1        20.5550   32.7980   15.7600 C.ar  203  INH203      0.0760
      8  C4        21.0770   31.8340   14.8830 C.ar  203  INH203      0.0460
      9  C5        20.3860   30.6380   14.6160 C.ar  203  INH203      0.0340
     10  C6        19.1460   30.4170   15.2090 C.ar  203  INH203      0.0490
     11  S2        20.9500   29.4080   13.5790 S.3   203  INH203     -0.0830
     12  C3        18.6230   31.3700   16.0700 C.ar  203  INH203      0.0320
     13  N1        18.6330   29.2330   14.7890 N.pl3 203  INH203     -0.3590
     14  C2        19.3190   32.5430   16.3470 C.ar  203  INH203      0.0270
     15  C7        19.4670   28.5780   13.9440 C.3   203  INH203      0.1390
     16  H1        17.7210   28.8750   15.0780 H     203  INH203      0.1660
     17  C8        21.8920   35.0470   18.4650 C.3   203  INH203      0.1070
     18  C9        21.9950   36.5540   18.7310 C.3   203  INH203      0.0150
     19  C10       23.1710   37.1560   17.9560 C.3   203  INH203      0.0010
     20  C11       22.8320   38.0440   16.7540 C.3   203  INH203     -0.0050
     21  C12       23.0470   39.5170   17.0290 C.3   203  INH203      0.0050
     22  C15       17.4920   36.7020   18.0810 C.3   203  INH203      0.1180
     23  C23       16.0340   36.2370   18.0770 C.3   203  INH203      0.0660
     24  C24       15.8460   35.0740   17.1320 C.ar  203  INH203     -0.0560
     25  C29       16.0950   35.2160   15.7730 C.ar  203  INH203      0.0070
     26  C28       15.9340   34.1350   14.9090 C.ar  203  INH203      0.0010
     27  C27       15.5200   32.9070   15.4100 C.ar  203  INH203      0.0000
     28  C26       15.2710   32.7570   16.7650 C.ar  203  INH203      0.0010
     29  C25       15.4240   33.8420   17.6240 C.ar  203  INH203      0.0070
     30  N3        17.6910   37.6270   16.9760 N.am  203  INH203     -0.3520
     31  H21       17.8540   37.2210   16.0760 H     203  INH203      0.1630
     32  C16       17.6810   38.9630   17.0360 C.2   203  INH203      0.2410
     33  O4        17.8370   39.7260   16.1020 O.2   203  INH203     -0.2710
     34  C17       17.4660   39.5070   18.4240 C.3   203  INH203      0.1790
     35  N4        18.2630   40.6940   18.6830 N.am  203  INH203     -0.3480
     36  H30       17.8280   41.5930   18.6410 H     203  INH203      0.1630
     37  C21       19.5600   40.6130   18.9730 C.2   203  INH203      0.2140
     38  C22       20.2080   41.9430   19.2170 C.3   203  INH203      0.1170
     39  O5        20.1730   39.5460   19.0440 O.2   203  INH203     -0.2740
     40  C18       16.0110   39.7710   18.7530 C.3   203  INH203      0.0090
     41  C20       15.8280   39.7590   20.2630 C.3   203  INH203      0.0120
     42  C19       15.5340   41.0960   18.1420 C.3   203  INH203      0.0120
     43  O3        18.7660   35.0280   19.3390 O.3   203  INH203     -0.3920
     44  H19       18.3340   35.5740   19.9860 H     203  INH203      0.2100
@<TRIPOS>BOND
     1    11    15    1
     2    11     9    1
     3    15    13    1
     4     9     8   ar
     5     9    10   ar
     6    13    16    1
     7    13    10    1
     8     8     7   ar
     9    26    27   ar
    10    26    25   ar
    11     5     4    2
    12    10    12   ar
    13    27    28   ar
    14     7     4    1
    15     7    14   ar
    16    25    24   ar
    17    12    14   ar
    18    31    30    1
    19    33    32    2
    20     4     6    2
    21     4     3    1
    22    20    21    1
    23    20    19    1
    24    28    29   ar
    25    30    32   am
    26    30    22    1
    27    32    34    1
    28    24    29   ar
    29    24    23    1
    30     2     3    1
    31     2     1    1
    32     3    17    1
    33    19    18    1
    34     1    22    1
    35     1    43    1
    36    23    22    1
    37    42    40    1
    38    34    35    1
    39    34    40    1
    40    17    18    1
    41    36    35    1
    42    35    37   am
    43    40    41    1
    44    37    39    2
    45    37    38    1
    46    43    44    1
