@<TRIPOS>MOLECULE
/tmp/ewbell/vina_2qi5_2qi5_lig/vina/vina5.pdbqt
 44 46 0 0 0
SMALL
GASTEIGER

@<TRIPOS>ATOM
      1  C14       23.4710   25.0000    8.0390 C.3   203  INH203      0.1550
      2  C13       22.9280   24.5930    9.4120 C.3   203  INH203      0.1410
      3  N2        22.0840   25.6840    9.9490 N.3   203  INH203     -0.2040
      4  S1        20.5480   25.2410   10.1780 S.O2  203  INH203      0.2430
      5  O1        20.0580   24.7080    8.9480 O.2   203  INH203     -0.2060
      6  O2        20.5700   24.2210   11.1950 O.2   203  INH203     -0.2060
      7  C1        19.6430   26.4810   10.6890 C.ar  203  INH203      0.0760
      8  C4        19.9040   27.2260   11.8500 C.ar  203  INH203      0.0460
      9  C5        19.0720   28.2900   12.2390 C.ar  203  INH203      0.0340
     10  C6        17.9490   28.5960   11.4750 C.ar  203  INH203      0.0490
     11  S2        19.3210   29.2550   13.6220 S.3   203  INH203     -0.0830
     12  C3        17.6820   27.8580   10.3310 C.ar  203  INH203      0.0320
     13  N1        17.2630   29.6210   12.0420 N.pl3 203  INH203     -0.3590
     14  C2        18.5190   26.8180    9.9390 C.ar  203  INH203      0.0270
     15  C7        17.8630   30.0860   13.1660 C.3   203  INH203      0.1390
     16  H1        16.3930   29.9980   11.6650 H     203  INH203      0.1660
     17  C8        22.6650   26.3560   11.1200 C.3   203  INH203      0.1070
     18  C9        23.5000   27.5590   10.6650 C.3   203  INH203      0.0150
     19  C10       23.0620   28.8260   11.4040 C.3   203  INH203      0.0010
     20  C11       23.5970   29.0240   12.8260 C.3   203  INH203     -0.0050
     21  C12       25.0540   28.6350   12.9670 C.3   203  INH203      0.0050
     22  C15       22.8820   24.1900    6.8720 C.3   203  INH203      0.1180
     23  C23       22.0360   25.0340    5.9150 C.3   203  INH203      0.0660
     24  C24       22.3890   24.7300    4.4790 C.ar  203  INH203     -0.0560
     25  C29       23.6690   24.9700    3.9950 C.ar  203  INH203      0.0070
     26  C28       23.9920   24.6730    2.6740 C.ar  203  INH203      0.0010
     27  C27       23.0260   24.1350    1.8320 C.ar  203  INH203      0.0000
     28  C26       21.7470   23.8910    2.3070 C.ar  203  INH203      0.0010
     29  C25       21.4260   24.1970    3.6270 C.ar  203  INH203      0.0070
     30  N3        22.0770   23.0780    7.3520 N.am  203  INH203     -0.3520
     31  H21       21.3360   23.3030    7.9850 H     203  INH203      0.1630
     32  C16       22.2230   21.7860    7.0380 C.2   203  INH203      0.2410
     33  O4        21.5350   20.8660    7.4380 O.2   203  INH203     -0.2710
     34  C17       23.3780   21.5140    6.1100 C.3   203  INH203      0.1790
     35  N4        24.4050   20.6940    6.7310 N.am  203  INH203     -0.3480
     36  H30       24.2060   19.7370    6.9390 H     203  INH203      0.1630
     37  C21       25.6040   21.1890    7.0310 C.2   203  INH203      0.2140
     38  C22       26.5300   20.1880    7.6570 C.3   203  INH203      0.1170
     39  O5        25.9310   22.3570    6.8100 O.2   203  INH203     -0.2740
     40  C18       22.9610   20.9140    4.7830 C.3   203  INH203      0.0090
     41  C20       24.0360   21.2000    3.7450 C.3   203  INH203      0.0120
     42  C19       22.6940   19.4080    4.9120 C.3   203  INH203      0.0120
     43  O3        24.8980   24.8790    8.0840 O.3   203  INH203     -0.3920
     44  H19       25.1880   24.2910    7.3950 H     203  INH203      0.2100
@<TRIPOS>BOND
     1    27    28   ar
     2    27    26   ar
     3    28    29   ar
     4    26    25   ar
     5    29    24   ar
     6    41    40    1
     7    25    24   ar
     8    24    23    1
     9    40    42    1
    10    40    34    1
    11    23    22    1
    12    34    35    1
    13    34    32    1
    14    35    36    1
    15    35    37   am
    16    39    37    2
    17    22    30    1
    18    22     1    1
    19    37    38    1
    20    32    30   am
    21    32    33    2
    22    30    31    1
    23    44    43    1
    24     1    43    1
    25     1     2    1
    26     5     4    2
    27     2     3    1
    28    14    12   ar
    29    14     7   ar
    30     3     4    1
    31     3    17    1
    32     4     7    1
    33     4     6    2
    34    12    10   ar
    35    18    17    1
    36    18    19    1
    37     7     8   ar
    38    19    20    1
    39    10    13    1
    40    10     9   ar
    41    16    13    1
    42     8     9   ar
    43    13    15    1
    44     9    11    1
    45    20    21    1
    46    15    11    1
