@<TRIPOS>MOLECULE
/tmp/ewbell/vina_2qi5_2qi5_lig/vina/vina2.pdbqt
 44 46 0 0 0
SMALL
GASTEIGER

@<TRIPOS>ATOM
      1  C14       18.4780   38.8060   16.7390 C.3   203  INH203      0.1550
      2  C13       18.0920   38.1140   18.0510 C.3   203  INH203      0.1410
      3  N2        17.9990   36.6540   17.8240 N.3   203  INH203     -0.2040
      4  S1        19.2790   35.8450   18.3870 S.O2  203  INH203      0.2430
      5  O1        20.1220   36.7750   19.0650 O.2   203  INH203     -0.2060
      6  O2        18.7630   34.8660   19.3100 O.2   203  INH203     -0.2060
      7  C1        20.0700   35.0860   17.1970 C.ar  203  INH203      0.0760
      8  C4        19.4840   34.1560   16.3240 C.ar  203  INH203      0.0460
      9  C5        20.2340   33.5290   15.3130 C.ar  203  INH203      0.0340
     10  C6        21.5900   33.8140   15.1890 C.ar  203  INH203      0.0490
     11  S2        19.6020   32.4000   14.2020 S.3   203  INH203     -0.0830
     12  C3        22.1760   34.7270   16.0540 C.ar  203  INH203      0.0320
     13  N1        22.1330   33.0770   14.1860 N.pl3 203  INH203     -0.3590
     14  C2        21.4270   35.3600   17.0410 C.ar  203  INH203      0.0270
     15  C7        21.2150   32.2980   13.5620 C.3   203  INH203      0.1390
     16  H1        23.1210   33.1070   13.9310 H     203  INH203      0.1660
     17  C8        16.7200   36.0720   18.2560 C.3   203  INH203      0.1070
     18  C9        15.6480   36.3300   17.1900 C.3   203  INH203      0.0150
     19  C10       14.9360   35.0260   16.8200 C.3   203  INH203      0.0010
     20  C11       15.6950   34.0490   15.9180 C.3   203  INH203     -0.0050
     21  C12       16.2570   34.7070   14.6750 C.3   203  INH203      0.0050
     22  C15       19.8260   39.5460   16.8000 C.3   203  INH203      0.1180
     23  C23       20.9680   38.7750   16.1330 C.3   203  INH203      0.0660
     24  C24       21.8600   39.7120   15.3530 C.ar  203  INH203     -0.0560
     25  C29       21.5710   40.0340   14.0330 C.ar  203  INH203      0.0070
     26  C28       22.3890   40.9100   13.3240 C.ar  203  INH203      0.0010
     27  C27       23.5040   41.4640   13.9410 C.ar  203  INH203      0.0000
     28  C26       23.7990   41.1480   15.2580 C.ar  203  INH203      0.0010
     29  C25       22.9830   40.2660   15.9600 C.ar  203  INH203      0.0070
     30  N3        20.2030   39.8470   18.1720 N.am  203  INH203     -0.3520
     31  H21       20.4500   39.0690   18.7500 H     203  INH203      0.1630
     32  C16       20.2540   41.0560   18.7430 C.2   203  INH203      0.2410
     33  O4        20.5830   41.2960   19.8890 O.2   203  INH203     -0.2710
     34  C17       19.8360   42.1780   17.8280 C.3   203  INH203      0.1790
     35  N4        18.7760   42.9910   18.4000 N.am  203  INH203     -0.3480
     36  H30       18.9400   43.4740   19.2590 H     203  INH203      0.1630
     37  C21       17.5910   43.1060   17.8050 C.2   203  INH203      0.2140
     38  C22       16.6320   43.9950   18.5400 C.3   203  INH203      0.1170
     39  O5        17.3050   42.5450   16.7460 O.2   203  INH203     -0.2740
     40  C18       20.9870   43.0560   17.3820 C.3   203  INH203      0.0090
     41  C20       20.8420   43.3570   15.8980 C.3   203  INH203      0.0120
     42  C19       21.0560   44.3460   18.2110 C.3   203  INH203      0.0120
     43  O3        17.4140   39.7000   16.3920 O.3   203  INH203     -0.3920
     44  H19       17.7370   40.3570   15.7850 H     203  INH203      0.2100
@<TRIPOS>BOND
     1    26    27   ar
     2    26    25   ar
     3    15    13    1
     4    15    11    1
     5    16    13    1
     6    27    28   ar
     7    25    24   ar
     8    13    10    1
     9    11     9    1
    10    21    20    1
    11    10     9   ar
    12    10    12   ar
    13    28    29   ar
    14     9     8   ar
    15    24    29   ar
    16    24    23    1
    17    44    43    1
    18    41    40    1
    19    20    19    1
    20    12    14   ar
    21    23    22    1
    22     8     7   ar
    23    43     1    1
    24     1    22    1
    25     1     2    1
    26    39    37    2
    27    22    30    1
    28    19    18    1
    29    14     7   ar
    30    18    17    1
    31     7     4    1
    32    40    34    1
    33    40    42    1
    34    37    35   am
    35    37    38    1
    36     3     2    1
    37     3    17    1
    38     3     4    1
    39    34    35    1
    40    34    32    1
    41    30    32   am
    42    30    31    1
    43     4     5    2
    44     4     6    2
    45    35    36    1
    46    32    33    2
