@<TRIPOS>MOLECULE
/tmp/ewbell/vina_2qi5_2qi5_lig/vina/vina3.pdbqt
 44 46 0 0 0
SMALL
GASTEIGER

@<TRIPOS>ATOM
      1  C14       21.2260   36.3440   17.1250 C.3   203  INH203      0.1550
      2  C13       21.6000   35.7190   15.7770 C.3   203  INH203      0.1410
      3  N2        21.0070   34.3660   15.6840 N.3   203  INH203     -0.2040
      4  S1        22.1000   33.1870   15.8390 S.O2  203  INH203      0.2430
      5  O1        23.3140   33.6330   15.2370 O.2   203  INH203     -0.2060
      6  O2        22.2810   32.9890   17.2540 O.2   203  INH203     -0.2060
      7  C1        21.5800   31.8060   15.1720 C.ar  203  INH203      0.0760
      8  C4        21.9460   31.3590   13.8930 C.ar  203  INH203      0.0460
      9  C5        21.4520   30.1490   13.3720 C.ar  203  INH203      0.0340
     10  C6        20.5610   29.3920   14.1270 C.ar  203  INH203      0.0490
     11  S2        21.8540   29.5230   11.8380 S.3   203  INH203     -0.0830
     12  C3        20.1900   29.8340   15.3890 C.ar  203  INH203      0.0320
     13  N1        20.1760   28.2920   13.4310 N.pl3 203  INH203     -0.3590
     14  C2        20.6960   31.0220   15.9080 C.ar  203  INH203      0.0270
     15  C7        20.7790   28.2100   12.2190 C.3   203  INH203      0.1390
     16  H1        19.5080   27.6050   13.7810 H     203  INH203      0.1660
     17  C8        19.8350   34.1760   16.5500 C.3   203  INH203      0.1070
     18  C9        18.5780   34.0060   15.6880 C.3   203  INH203      0.0150
     19  C10       17.4640   33.3290   16.4920 C.3   203  INH203      0.0010
     20  C11       16.0400   33.4400   15.9390 C.3   203  INH203     -0.0050
     21  C12       15.2550   32.1510   16.0650 C.3   203  INH203      0.0050
     22  C15       21.1120   37.8780   17.0890 C.3   203  INH203      0.1180
     23  C23       22.4620   38.5810   16.9260 C.3   203  INH203      0.0660
     24  C24       22.4360   39.5190   15.7420 C.ar  203  INH203     -0.0560
     25  C29       23.2200   40.6660   15.7280 C.ar  203  INH203      0.0070
     26  C28       23.2030   41.5190   14.6270 C.ar  203  INH203      0.0010
     27  C27       22.3950   41.2220   13.5370 C.ar  203  INH203      0.0000
     28  C26       21.6110   40.0800   13.5430 C.ar  203  INH203      0.0010
     29  C25       21.6240   39.2340   14.6490 C.ar  203  INH203      0.0070
     30  N3        20.4600   38.3890   18.2850 N.am  203  INH203     -0.3520
     31  H21       20.9700   38.3090   19.1420 H     203  INH203      0.1630
     32  C16       19.2500   38.9550   18.3610 C.2   203  INH203      0.2410
     33  O4        18.7210   39.3890   19.3650 O.2   203  INH203     -0.2710
     34  C17       18.5240   39.0120   17.0420 C.3   203  INH203      0.1790
     35  N4        17.1870   38.4470   17.1230 N.am  203  INH203     -0.3480
     36  H30       16.4070   38.9940   16.8180 H     203  INH203      0.1630
     37  C21       16.9760   37.2200   17.5930 C.2   203  INH203      0.2140
     38  C22       15.5330   36.8120   17.5880 C.3   203  INH203      0.1170
     39  O5        17.8800   36.4810   17.9890 O.2   203  INH203     -0.2740
     40  C18       18.4710   40.4000   16.4390 C.3   203  INH203      0.0090
     41  C20       17.0820   40.9840   16.6450 C.3   203  INH203      0.0120
     42  C19       19.5540   41.3080   17.0380 C.3   203  INH203      0.0120
     43  O3        22.2020   35.9220   18.0850 O.3   203  INH203     -0.3920
     44  H19       22.3200   36.6020   18.7380 H     203  INH203      0.2100
@<TRIPOS>BOND
     1    11    15    1
     2    11     9    1
     3    15    13    1
     4     9     8   ar
     5     9    10   ar
     6    13    16    1
     7    13    10    1
     8    27    28   ar
     9    27    26   ar
    10    28    29   ar
    11     8     7   ar
    12    10    12   ar
    13    26    25   ar
    14    29    24   ar
    15     7     4    1
    16     7    14   ar
    17     5     4    2
    18    12    14   ar
    19     3     2    1
    20     3     4    1
    21     3    17    1
    22    18    19    1
    23    18    17    1
    24    25    24   ar
    25    24    23    1
    26     2     1    1
    27     4     6    2
    28    20    21    1
    29    20    19    1
    30    40    41    1
    31    40    42    1
    32    40    34    1
    33    36    35    1
    34    23    22    1
    35    34    35    1
    36    34    32    1
    37    22     1    1
    38    22    30    1
    39    35    37   am
    40     1    43    1
    41    38    37    1
    42    37    39    2
    43    43    44    1
    44    30    32   am
    45    30    31    1
    46    32    33    2
