@<TRIPOS>MOLECULE
./ligand/2h21_lig.pdb
 50 52 0 0 0
SMALL
GASTEIGER

@<TRIPOS>ATOM
      1  N1        71.0000  131.5610   50.0280 N.4   431  INH431      0.2289
      2  C1        69.6630  131.1270   50.4510 C.3   431  INH431      0.0793
      3  C2        68.7050  131.0350   49.2120 C.2   431  INH431      0.4026
      4  O1        67.4900  131.3030   49.3420 O.co2 431  INH431     -0.2400
      5  C3        69.1150  132.0950   51.5350 C.3   431  INH431      0.0092
      6  C4        69.6760  131.9000   52.9120 C.3   431  INH431     -0.0095
      7  O2        69.1600  130.6940   48.0980 O.co2 431  INH431     -0.2400
      8  S1        68.8410  131.0100   53.8940 S.3   431  INH431     -0.2086
      9  C5        68.5900  132.0440   55.3260 C.3   431  INH431     -0.0267
     10  C6        70.1530  129.9610   54.5510 C.3   431  INH431      0.0137
     11  C7        70.6800  128.8680   53.6270 C.3   431  INH431      0.0979
     12  O3        71.4840  129.4410   52.5590 O.3   431  INH431     -0.3472
     13  C8        71.6030  127.8680   54.2940 C.3   431  INH431      0.1121
     14  O4        70.9070  126.8090   54.9350 O.3   431  INH431     -0.3865
     15  C9        72.4740  127.4060   53.1660 C.3   431  INH431      0.1285
     16  O5        71.9420  126.3750   52.3590 O.3   431  INH431     -0.3847
     17  C10       72.7080  128.7410   52.4600 C.3   431  INH431      0.1664
     18  N2        73.8190  129.5430   53.0540 N.ar  431  INH431     -0.2877
     19  C11       73.7850  130.7130   53.8080 C.ar  431  INH431      0.0999
     20  N3        74.9620  131.1550   54.1850 N.ar  431  INH431     -0.2346
     21  C12       75.8450  130.2200   53.6450 C.ar  431  INH431      0.1287
     22  C13       77.2680  130.0880   53.6820 C.3   431  INH431      0.2004
     23  N4        78.0670  130.9540   54.3050 N.3   431  INH431     -0.2985
     24  N5        77.8400  129.0220   53.0360 N.2   431  INH431     -0.2420
     25  C14       77.0420  128.1340   52.3920 C.2   431  INH431      0.1049
     26  N6        75.6930  128.1480   52.2880 N.pl3 431  INH431     -0.1840
     27  C15       75.1530  129.2200   52.9440 C.ar  431  INH431      0.1528
     28  H1        71.6050  131.6160   50.8320 H     431  INH431      0.2002
     29  H2        70.9370  132.4680   49.5920 H     431  INH431      0.2002
     30  H3        71.3760  130.8970   49.3690 H     431  INH431      0.2002
     31  H4        69.7450  130.1240   50.8950 H     431  INH431      0.0970
     32  H5        68.0250  131.9610   51.5900 H     431  INH431      0.0333
     33  H6        69.3420  133.1240   51.2180 H     431  INH431      0.0333
     34  H7        69.7830  132.8930   53.3720 H     431  INH431      0.0371
     35  H8        70.6680  131.4370   52.8050 H     431  INH431      0.0371
     36  H9        68.0050  131.4940   56.0780 H     431  INH431      0.0333
     37  H10       68.0450  132.9530   55.0310 H     431  INH431      0.0333
     38  H11       69.5650  132.3230   55.7520 H     431  INH431      0.0333
     39  H12       69.7680  129.4740   55.4590 H     431  INH431      0.0395
     40  H13       71.0000  130.6110   54.8150 H     431  INH431      0.0395
     41  H14       69.8150  128.3360   53.2030 H     431  INH431      0.0631
     42  H15       72.2160  128.3760   55.0530 H     431  INH431      0.0647
     43  H16       71.5320  126.2150   55.3340 H     431  INH431      0.2100
     44  H17       73.4260  127.0290   53.5670 H     431  INH431      0.0665
     45  H18       72.5650  126.1540   51.6770 H     431  INH431      0.2101
     46  H19       72.9460  128.5540   51.4030 H     431  INH431      0.0866
     47  H20       72.8560  131.2210   54.0640 H     431  INH431      0.1030
     48  H21       79.0870  130.8100   54.3000 H     431  INH431      0.1209
     49  H22       77.6650  131.7680   54.7920 H     431  INH431      0.1209
     50  H23       77.5480  127.3110   51.9000 H     431  INH431      0.1015
@<TRIPOS>BOND
     1     1    30    1
     2     1    29    1
     3     1    28    1
     4     1     2    1
     5     2    31    1
     6     2     5    1
     7     2     3    1
     8     3     7   ar
     9     3     4   ar
    10     5    33    1
    11     5    32    1
    12     5     6    1
    13     6    35    1
    14     6    34    1
    15     6     8    1
    16     8    10    1
    17     8     9    1
    18     9    38    1
    19     9    37    1
    20     9    36    1
    21    10    40    1
    22    10    39    1
    23    10    11    1
    24    11    41    1
    25    11    13    1
    26    11    12    1
    27    12    17    1
    28    13    15    1
    29    13    42    1
    30    13    14    1
    31    14    43    1
    32    15    17    1
    33    15    44    1
    34    15    16    1
    35    16    45    1
    36    17    46    1
    37    17    18    1
    38    18    27   ar
    39    18    19   ar
    40    19    47    1
    41    19    20   ar
    42    20    21   ar
    43    21    27   ar
    44    21    22    1
    45    22    24    1
    46    22    23    1
    47    23    49    1
    48    23    48    1
    49    24    25    2
    50    25    50    1
    51    25    26    1
    52    26    27    1
