@<TRIPOS>MOLECULE
/tmp/ewbell/vina_2h21_2h21_lig/vina/vina3.pdbqt
 38 40 0 0 0
SMALL
GASTEIGER

@<TRIPOS>ATOM
      1  C7        72.2650  126.2980   50.2220 C.3   431  INH431      0.1640
      2  O3        71.2840  126.4740   51.2810 O.3   431  INH431     -0.3550
      3  C8        71.6180  126.9290   49.0050 C.3   431  INH431      0.1800
      4  C9        70.1560  126.6950   49.2390 C.3   431  INH431      0.1980
      5  C10       70.0860  126.9910   50.7360 C.3   431  INH431      0.2620
      6  N2        69.9540  128.4450   51.0510 N.3   431  INH431     -0.2970
      7  C15       70.0230  128.9720   52.3210 C.3   431  INH431      0.1380
      8  C12       69.8420  130.3560   52.1680 C.2   431  INH431      0.0970
      9  N6        70.2260  128.2910   53.4900 N.3   431  INH431     -0.3370
     10  N3        69.6630  130.6920   50.8260 N.pl3 431  INH431     -0.3490
     11  C13       69.8610  131.1270   53.3720 C.2   431  INH431      0.2300
     12  C11       69.7390  129.5340   50.2110 C.3   431  INH431      0.1870
     13  H3        69.5100  131.6150   50.4200 H     431  INH431      0.1660
     14  N5        70.0590  130.4730   54.5610 N.pl3 431  INH431     -0.3600
     15  C14       70.2260  129.1270   54.5540 C.3   431  INH431      0.1790
     16  H5        70.0810  130.9910   55.4380 H     431  INH431      0.1620
     17  H         70.3550  127.3170   53.5490 H     431  INH431      0.1680
     18  N4        69.7040  132.4500   53.3950 N.pl3 431  INH431     -0.4060
     19  H22       70.2250  133.0190   54.0790 H     431  INH431      0.1520
     20  H21       69.0630  132.9060   52.7300 H     431  INH431      0.1520
     21  O5        69.6640  125.4300   48.8440 O.3   431  INH431     -0.3880
     22  H18       68.8870  125.5460   48.3100 H     431  INH431      0.2100
     23  C6        73.6030  126.9120   50.6190 C.3   431  INH431      0.0970
     24  S1        74.1150  126.6910   52.3350 S.3   431  INH431     -0.2210
     25  C5        75.8750  126.8710   52.1090 C.3   431  INH431      0.0780
     26  C4        73.6560  128.0650   52.9300 C.3   431  INH431      0.0650
     27  C3        74.5690  129.2340   52.7130 C.3   431  INH431      0.0530
     28  C1        74.8250  130.1190   53.9640 C.3   431  INH431      0.2810
     29  N1        73.7480  131.1070   54.1010 N.4   431  INH431     -0.0650
     30  H3        73.7340  131.7030   53.2880 H     431  INH431      0.2750
     31  H2        72.8630  130.6310   54.1840 H     431  INH431      0.2750
     32  H1        73.9080  131.6650   54.9250 H     431  INH431      0.2750
     33  C2        76.2170  130.8390   53.8950 C.2   431  INH431      0.1710
     34  O2        77.2210  130.3030   54.4140 O.2   431  INH431     -0.6480
     35  O1        76.3190  131.9460   53.3230 O.3   431  INH431     -0.7750
     36  H         75.7280  132.1730   52.6320 H     431  INH431      0.1670
     37  O4        72.0840  126.3820   47.7800 O.3   431  INH431     -0.3900
     38  H16       72.2670  125.4570   47.8950 H     431  INH431      0.2100
@<TRIPOS>BOND
     1    37    38    1
     2    37     3    1
     3    22    21    1
     4    21     4    1
     5     3     4    1
     6     3     1    1
     7     4     5    1
     8    12    10    1
     9    12     6    1
    10     1    23    1
    11     1     2    1
    12    13    10    1
    13    23    24    1
    14     5     6    1
    15     5     2    1
    16    10     8    1
    17     6     7    1
    18    25    24    1
    19     8     7    1
    20     8    11    2
    21     7     9    1
    22    24    26    1
    23    36    35    1
    24    27    26    1
    25    27    28    1
    26    20    18    1
    27    30    29    1
    28    35    33    1
    29    11    18    1
    30    11    14    1
    31    18    19    1
    32     9    17    1
    33     9    15    1
    34    33    28    1
    35    33    34    2
    36    28    29    1
    37    29    31    1
    38    29    32    1
    39    15    14    1
    40    14    16    1
