@<TRIPOS>MOLECULE
/tmp/ewbell/vina_2h21_2h21_lig/vina/vina4.pdbqt
 38 40 0 0 0
SMALL
GASTEIGER

@<TRIPOS>ATOM
      1  C7        74.4380  126.8800   51.9620 C.3   431  INH431      0.1640
      2  O3        73.7280  126.8330   53.2310 O.3   431  INH431     -0.3550
      3  C8        73.3690  127.2430   50.9500 C.3   431  INH431      0.1800
      4  C9        72.1320  126.6260   51.5280 C.3   431  INH431      0.1980
      5  C10       72.3400  126.9700   53.0020 C.3   431  INH431      0.2620
      6  N2        71.8830  128.3450   53.3640 N.3   431  INH431     -0.2970
      7  C15       70.5620  128.7140   53.4910 C.3   431  INH431      0.1380
      8  C12       70.5800  130.0770   53.8290 C.2   431  INH431      0.0970
      9  N6        69.4610  127.9200   53.3220 N.3   431  INH431     -0.3370
     10  N3        71.8880  130.5540   53.9140 N.pl3 431  INH431     -0.3490
     11  C13       69.3030  130.6950   54.0020 C.2   431  INH431      0.2300
     12  C11       72.6150  129.4980   53.6350 C.3   431  INH431      0.1870
     13  H3        72.2030  131.4980   54.1400 H     431  INH431      0.1660
     14  N5        68.1790  129.9260   53.8370 N.pl3 431  INH431     -0.3600
     15  C14       68.3170  128.6160   53.5150 C.3   431  INH431      0.1790
     16  H5        67.2520  130.3340   53.9550 H     431  INH431      0.1620
     17  H         69.4970  126.9640   53.0900 H     431  INH431      0.1680
     18  N4        69.1500  131.9800   54.3240 N.pl3 431  INH431     -0.4060
     19  H22       69.4770  132.7150   53.6810 H     431  INH431      0.1520
     20  H21       68.7050  132.2380   55.2170 H     431  INH431      0.1520
     21  O5        71.9360  125.2560   51.2430 O.3   431  INH431     -0.3880
     22  H18       72.6160  124.9550   50.6530 H     431  INH431      0.2100
     23  C6        75.6040  127.8600   52.0340 C.3   431  INH431      0.0970
     24  S1        77.2460  127.1860   51.7130 S.3   431  INH431     -0.2210
     25  C5        77.1590  127.1220   49.9320 C.3   431  INH431      0.0780
     26  C4        78.1190  128.4500   52.0150 C.3   431  INH431      0.0650
     27  C3        78.0870  128.9720   53.4210 C.3   431  INH431      0.0530
     28  C1        78.2170  130.5130   53.5610 C.3   431  INH431      0.2810
     29  N1        78.9410  130.8400   54.7950 N.4   431  INH431     -0.0650
     30  H3        78.2900  130.8890   55.5640 H     431  INH431      0.2750
     31  H2        79.6280  130.1260   54.9820 H     431  INH431      0.2750
     32  H1        79.4020  131.7300   54.6880 H     431  INH431      0.2750
     33  C2        76.8170  131.2210   53.5490 C.2   431  INH431      0.1710
     34  O2        75.8320  130.6590   54.0770 O.2   431  INH431     -0.6480
     35  O1        76.6900  132.3430   53.0120 O.3   431  INH431     -0.7750
     36  H         77.2950  133.0300   53.2120 H     431  INH431      0.1670
     37  O4        73.6650  126.7830   49.6390 O.3   431  INH431     -0.3900
     38  H16       72.9000  126.3550   49.2730 H     431  INH431      0.2100
@<TRIPOS>BOND
     1    38    37    1
     2    37     3    1
     3    25    24    1
     4    22    21    1
     5     3     4    1
     6     3     1    1
     7    21     4    1
     8     4     5    1
     9    24    26    1
    10    24    23    1
    11     1    23    1
    12     1     2    1
    13    26    27    1
    14     5     2    1
    15     5     6    1
    16    35    36    1
    17    35    33    1
    18    17     9    1
    19     9     7    1
    20     9    15    1
    21     6     7    1
    22     6    12    1
    23    27    28    1
    24     7     8    1
    25    15    14    1
    26    33    28    1
    27    33    34    2
    28    28    29    1
    29    12    10    1
    30    19    18    1
    31     8    10    1
    32     8    11    2
    33    14    16    1
    34    14    11    1
    35    10    13    1
    36    11    18    1
    37    18    20    1
    38    32    29    1
    39    29    31    1
    40    29    30    1
