@<TRIPOS>MOLECULE
/tmp/ewbell/vina_2h21_2h21_lig/vina/vina2.pdbqt
 38 40 0 0 0
SMALL
GASTEIGER

@<TRIPOS>ATOM
      1  C7        72.1160  126.7760   51.1520 C.3   431  INH431      0.1640
      2  O3        72.4390  128.1660   51.4290 O.3   431  INH431     -0.3550
      3  C8        72.1290  126.1110   52.5140 C.3   431  INH431      0.1800
      4  C9        73.1540  126.9020   53.2670 C.3   431  INH431      0.1980
      5  C10       72.7940  128.3080   52.7900 C.3   431  INH431      0.2620
      6  N2        71.6750  128.9310   53.5590 N.3   431  INH431     -0.2970
      7  C15       70.7680  129.8190   53.0260 C.3   431  INH431      0.1380
      8  C12       69.9050  130.1590   54.0800 C.2   431  INH431      0.0970
      9  N6        70.7160  130.2750   51.7380 N.3   431  INH431     -0.3370
     10  N3        70.2640  129.4960   55.2540 N.pl3 431  INH431     -0.3490
     11  C13       68.8710  131.0940   53.7660 C.2   431  INH431      0.2300
     12  C11       71.3080  128.7870   54.8950 C.3   431  INH431      0.1870
     13  H3        69.8220  129.5510   56.1720 H     431  INH431      0.1660
     14  N5        68.7940  131.5720   52.4830 N.pl3 431  INH431     -0.3600
     15  C14       69.6970  131.1480   51.5640 C.3   431  INH431      0.1790
     16  H5        68.0670  132.2390   52.2230 H     431  INH431      0.1620
     17  H         71.3410  130.0030   51.0270 H     431  INH431      0.1680
     18  N4        67.9720  131.5170   54.6550 N.pl3 431  INH431     -0.4060
     19  H22       67.4520  132.3900   54.4860 H     431  INH431      0.1520
     20  H21       67.7970  130.9720   55.5110 H     431  INH431      0.1520
     21  O5        74.4990  126.5170   53.0680 O.3   431  INH431     -0.3880
     22  H18       74.5250  125.6590   52.6610 H     431  INH431      0.2100
     23  C6        70.7910  126.6680   50.4050 C.3   431  INH431      0.0970
     24  S1        70.8580  125.9850   48.7370 S.3   431  INH431     -0.2210
     25  C5        70.0920  127.3410   47.8670 C.3   431  INH431      0.0780
     26  C4        72.3880  126.1470   48.4420 C.2   431  INH431      0.0650
     27  C3        73.1900  124.8850   48.3230 C.2   431  INH431      0.0530
     28  C1        74.7240  125.0540   48.4970 C.3   431  INH431      0.2810
     29  N1        75.4100  123.8300   48.0670 N.4   431  INH431     -0.0650
     30  H3        76.2180  123.6740   48.6500 H     431  INH431      0.2750
     31  H2        74.7810  123.0450   48.1470 H     431  INH431      0.2750
     32  H1        75.7020  123.9290   47.1070 H     431  INH431      0.2750
     33  C2        75.1080  125.3990   49.9780 C.2   431  INH431      0.1710
     34  O2        75.5620  126.5310   50.2550 O.2   431  INH431     -0.6480
     35  O1        74.9610  124.5420   50.8770 O.3   431  INH431     -0.7750
     36  H         74.7690  123.6530   50.6510 H     431  INH431      0.1670
     37  O4        72.4250  124.7230   52.4530 O.3   431  INH431     -0.3900
     38  H16       73.2850  124.5660   52.8270 H     431  INH431      0.2100
@<TRIPOS>BOND
     1    32    29    1
     2    25    24    1
     3    29    31    1
     4    29    28    1
     5    29    30    1
     6    27    26    2
     7    27    28    1
     8    26    24    1
     9    28    33    1
    10    24    23    1
    11    33    34    2
    12    33    35    1
    13    23     1    1
    14    36    35    1
    15    17     9    1
    16     1     2    1
    17     1     3    1
    18     2     5    1
    19    15     9    1
    20    15    14    1
    21     9     7    1
    22    16    14    1
    23    37     3    1
    24    37    38    1
    25    14    11    1
    26     3     4    1
    27    22    21    1
    28     5     4    1
    29     5     6    1
    30     7     6    1
    31     7     8    1
    32    21     4    1
    33     6    12    1
    34    11     8    2
    35    11    18    1
    36     8    10    1
    37    19    18    1
    38    18    20    1
    39    12    10    1
    40    10    13    1
