@<TRIPOS>MOLECULE
/tmp/ewbell/vina_2h21_2h21_lig/vina/vina1.pdbqt
 38 40 0 0 0
SMALL
GASTEIGER

@<TRIPOS>ATOM
      1  C7        69.4900  128.2160   52.9140 C.3   431  INH431      0.1640
      2  O3        70.3900  127.2350   53.4990 O.3   431  INH431     -0.3550
      3  C8        70.2300  129.5320   53.0550 C.3   431  INH431      0.1800
      4  C9        71.0270  129.3390   54.3090 C.3   431  INH431      0.1980
      5  C10       71.4840  127.8950   54.1020 C.3   431  INH431      0.2620
      6  N2        72.7040  127.7730   53.2490 N.3   431  INH431     -0.2970
      7  C15       73.0450  126.6410   52.5420 C.3   431  INH431      0.1380
      8  C12       74.2510  126.9480   51.8930 C.2   431  INH431      0.0970
      9  N6        72.3540  125.4620   52.4850 N.3   431  INH431     -0.3370
     10  N3        74.6600  128.2490   52.1850 N.pl3 431  INH431     -0.3490
     11  C13       74.8170  125.9040   51.0970 C.2   431  INH431      0.2300
     12  C11       73.7160  128.6910   52.9840 C.3   431  INH431      0.1870
     13  H3        75.4920  128.7390   51.8570 H     431  INH431      0.1660
     14  N5        74.1490  124.7090   51.0200 N.pl3 431  INH431     -0.3600
     15  C14       72.9850  124.5580   51.7010 C.3   431  INH431      0.1790
     16  H5        74.5220  123.9430   50.4600 H     431  INH431      0.1620
     17  H         71.5050  125.2930   52.9540 H     431  INH431      0.1680
     18  N4        75.9560  126.0380   50.4170 N.pl3 431  INH431     -0.4060
     19  H22       76.5950  126.8170   50.6300 H     431  INH431      0.1520
     20  H21       76.1970  125.3620   49.6780 H     431  INH431      0.1520
     21  O5        70.3440  129.5940   55.5190 O.3   431  INH431     -0.3880
     22  H18       70.7700  129.1270   56.2280 H     431  INH431      0.2100
     23  C6        69.1380  127.8370   51.4790 C.3   431  INH431      0.0970
     24  S1        70.5030  127.7730   50.3020 S.3   431  INH431     -0.2210
     25  C5        70.2320  126.1250   49.6760 C.3   431  INH431      0.0780
     26  C4        69.9370  128.7130   49.1840 C.3   431  INH431      0.0650
     27  C3        68.8920  129.7040   49.6010 C.3   431  INH431      0.0530
     28  C1        69.3070  131.1960   49.4860 C.3   431  INH431      0.2810
     29  N1        70.5970  131.4050   50.1550 N.4   431  INH431     -0.0650
     30  H3        71.1490  130.5640   50.0910 H     431  INH431      0.2750
     31  H2        71.0880  132.1650   49.7100 H     431  INH431      0.2750
     32  H1        70.4390  131.6300   51.1250 H     431  INH431      0.2750
     33  C2        68.2210  132.1530   50.0900 C.2   431  INH431      0.1710
     34  O2        67.3870  132.7020   49.3360 O.2   431  INH431     -0.6480
     35  O1        68.1920  132.3650   51.3220 O.3   431  INH431     -0.7750
     36  H         68.6770  131.8130   51.9040 H     431  INH431      0.1670
     37  O4        69.3630  130.6550   53.1100 O.3   431  INH431     -0.3900
     38  H16       69.8640  131.4490   52.9660 H     431  INH431      0.2100
@<TRIPOS>BOND
     1    26    27    1
     2    26    24    1
     3    34    33    2
     4    28    27    1
     5    28    33    1
     6    28    29    1
     7    25    24    1
     8    20    18    1
     9    31    29    1
    10    33    35    1
    11    30    29    1
    12    29    32    1
    13    24    23    1
    14    18    19    1
    15    18    11    1
    16    16    14    1
    17    14    11    1
    18    14    15    1
    19    11     8    2
    20    35    36    1
    21    23     1    1
    22    15     9    1
    23    13    10    1
    24     8    10    1
    25     8     7    1
    26    10    12    1
    27     9     7    1
    28     9    17    1
    29     7     6    1
    30     1     3    1
    31     1     2    1
    32    38    37    1
    33    12     6    1
    34     3    37    1
    35     3     4    1
    36     6     5    1
    37     2     5    1
    38     5     4    1
    39     4    21    1
    40    21    22    1
