@<TRIPOS>MOLECULE
/tmp/ewbell/vina_2h21_2h21_lig/vina/vina5.pdbqt
 38 40 0 0 0
SMALL
GASTEIGER

@<TRIPOS>ATOM
      1  C7        71.9500  128.7070   52.9040 C.3   431  INH431      0.1640
      2  O3        72.9390  129.2630   51.9940 O.3   431  INH431     -0.3550
      3  C8        72.7340  127.7320   53.7590 C.3   431  INH431      0.1800
      4  C9        73.8060  127.2520   52.8280 C.3   431  INH431      0.1980
      5  C10       74.1630  128.5720   52.1460 C.3   431  INH431      0.2620
      6  N2        75.1370  129.3990   52.9200 N.3   431  INH431     -0.2970
      7  C15       76.4860  129.1340   53.0010 C.3   431  INH431      0.1380
      8  C12       77.0210  130.1380   53.8240 C.2   431  INH431      0.0970
      9  N6        77.1650  128.1080   52.4030 N.3   431  INH431     -0.3370
     10  N3        76.0270  131.0170   54.2520 N.pl3 431  INH431     -0.3490
     11  C13       78.4280  130.0630   54.0680 C.2   431  INH431      0.2300
     12  C11       74.9390  130.5400   53.6930 C.3   431  INH431      0.1870
     13  H3        76.1220  131.8340   54.8560 H     431  INH431      0.1660
     14  N5        79.1370  129.0440   53.4850 N.pl3 431  INH431     -0.3600
     15  C14       78.4830  128.1460   52.7050 C.3   431  INH431      0.1790
     16  H5        80.1420  128.9610   53.6350 H     431  INH431      0.1620
     17  H         76.7470  127.4280   51.8260 H     431  INH431      0.1680
     18  N4        79.0870  130.9390   54.8260 N.pl3 431  INH431     -0.4060
     19  H22       78.6570  131.2970   55.6910 H     431  INH431      0.1520
     20  H21       80.0250  131.2590   54.5470 H     431  INH431      0.1520
     21  O5        73.4420  126.1980   51.9600 O.3   431  INH431     -0.3880
     22  H18       72.7920  125.6500   52.3840 H     431  INH431      0.2100
     23  C6        71.2510  129.8160   53.6840 C.3   431  INH431      0.0970
     24  S1        69.4780  129.6240   53.9480 S.3   431  INH431     -0.2210
     25  C5        69.0600  131.3420   54.1890 C.3   431  INH431      0.0780
     26  C4        69.0210  129.3140   52.4820 C.3   431  INH431      0.0650
     27  C3        68.9270  130.4800   51.5430 C.3   431  INH431      0.0530
     28  C1        69.7010  130.3210   50.2060 C.3   431  INH431      0.2810
     29  N1        70.9190  131.1390   50.2380 N.4   431  INH431     -0.0650
     30  H3        70.8920  131.8120   49.4870 H     431  INH431      0.2750
     31  H2        70.9770  131.6230   51.1200 H     431  INH431      0.2750
     32  H1        71.7250  130.5450   50.1270 H     431  INH431      0.2750
     33  C2        68.8170  130.7120   48.9700 C.2   431  INH431      0.1710
     34  O2        67.9160  131.5700   49.0960 O.2   431  INH431     -0.6480
     35  O1        69.0160  130.1640   47.8630 O.3   431  INH431     -0.7750
     36  H         69.5950  130.5590   47.2420 H     431  INH431      0.1670
     37  O4        71.9350  126.6820   54.2820 O.3   431  INH431     -0.3900
     38  H16       72.1350  125.8730   53.8250 H     431  INH431      0.2100
@<TRIPOS>BOND
     1    36    35    1
     2    35    33    1
     3    33    34    2
     4    33    28    1
     5    30    29    1
     6    32    29    1
     7    28    29    1
     8    28    27    1
     9    29    31    1
    10    27    26    1
    11    17     9    1
    12    21    22    1
    13    21     4    1
    14     2     5    1
    15     2     1    1
    16     5     4    1
    17     5     6    1
    18     9    15    1
    19     9     7    1
    20    26    24    1
    21    15    14    1
    22     4     3    1
    23     1    23    1
    24     1     3    1
    25     6     7    1
    26     6    12    1
    27     7     8    1
    28    14    16    1
    29    14    11    1
    30    23    24    1
    31    12    10    1
    32     3    37    1
    33     8    11    2
    34     8    10    1
    35    38    37    1
    36    24    25    1
    37    11    18    1
    38    10    13    1
    39    20    18    1
    40    18    19    1
