@<TRIPOS>MOLECULE
./ligand/2o4j_lig.pdb
 72 74 0 0 0
SMALL
GASTEIGER

@<TRIPOS>ATOM
      1  O1        66.0780   -2.2520   -7.5030 O.3   259  INH259     -0.3891
      2  C1        66.7390   -1.2690   -6.7360 C.3   259  INH259      0.0605
      3  C2        68.1700   -1.2490   -7.2550 C.3   259  INH259     -0.0363
      4  C3        66.7170   -1.6540   -5.2520 C.3   259  INH259     -0.0363
      5  C4        66.0450    0.0710   -7.0080 C.3   259  INH259     -0.0242
      6  C5        64.5270    0.0530   -6.7210 C.3   259  INH259     -0.0468
      7  C6        63.7350    1.2920   -7.1990 C.3   259  INH259     -0.0316
      8  C7        62.2900    1.1450   -6.7360 C.2   259  INH259     -0.0728
      9  C8        61.5610   -0.1030   -7.1510 C.3   259  INH259     -0.0435
     10  C9        61.6050    2.0550   -5.9730 C.2   259  INH259     -0.0641
     11  C10       62.0810    3.3840   -5.4160 C.3   259  INH259     -0.0043
     12  C11       62.9790    3.1330   -4.1730 C.3   259  INH259     -0.0553
     13  C12       62.7520    4.3780   -6.3790 C.3   259  INH259     -0.0431
     14  C13       62.9010    5.7980   -5.7400 C.3   259  INH259     -0.0485
     15  C14       61.5560    6.3180   -5.1950 C.3   259  INH259     -0.0311
     16  C15       60.1730    1.7580   -5.5270 C.3   259  INH259     -0.0304
     17  C16       59.8290    2.8210   -4.4700 C.3   259  INH259     -0.0420
     18  C17       60.6800    3.9330   -5.0930 C.3   259  INH259     -0.0102
     19  C18       60.9060    5.2250   -4.3410 C.2   259  INH259     -0.0656
     20  C19       60.6340    5.3700   -3.0160 C.2   259  INH259     -0.0623
     21  C20       60.8570    6.6340   -2.2500 C.2   259  INH259     -0.0624
     22  C21       61.1850    6.7150   -0.9310 C.2   259  INH259     -0.0640
     23  C22       61.4140    5.4710   -0.0630 C.3   259  INH259     -0.0013
     24  C23       60.7390    5.6080    1.3160 C.3   259  INH259      0.0820
     25  O2        61.0800    4.4990    2.1930 O.3   259  INH259     -0.3871
     26  C24       61.3620    8.0740   -0.2730 C.3   259  INH259     -0.0013
     27  C25       60.7520    8.1160    1.1380 C.3   259  INH259      0.0820
     28  O3        59.3120    8.1580    1.0580 O.3   259  INH259     -0.3871
     29  C26       61.1430    6.9020    1.9360 C.2   259  INH259     -0.0198
     30  C27       61.7690    7.0410    3.0930 C.2   259  INH259     -0.0946
     31  H1        66.0980   -2.0030   -8.4190 H     259  INH259      0.2101
     32  H2        68.7510   -0.4990   -6.6990 H     259  INH259      0.0257
     33  H3        68.1690   -0.9920   -8.3250 H     259  INH259      0.0257
     34  H4        68.6240   -2.2410   -7.1170 H     259  INH259      0.0257
     35  H5        67.2350   -0.8810   -4.6650 H     259  INH259      0.0257
     36  H6        67.2260   -2.6200   -5.1160 H     259  INH259      0.0257
     37  H7        65.6750   -1.7370   -4.9100 H     259  INH259      0.0257
     38  H8        66.1950    0.3320   -8.0660 H     259  INH259      0.0293
     39  H9        66.5100    0.8380   -6.3720 H     259  INH259      0.0293
     40  H10       64.3910   -0.0350   -5.6330 H     259  INH259      0.0269
     41  H11       64.1010   -0.8310   -7.2170 H     259  INH259      0.0269
     42  H12       63.7690    1.3550   -8.2970 H     259  INH259      0.0310
     43  H13       64.1730    2.2030   -6.7660 H     259  INH259      0.0310
     44  H14       60.5360   -0.0790   -6.7520 H     259  INH259      0.0274
     45  H15       62.0880   -0.9840   -6.7560 H     259  INH259      0.0274
     46  H16       61.5260   -0.1590   -8.2490 H     259  INH259      0.0274
     47  H17       63.9550    2.7440   -4.4980 H     259  INH259      0.0238
     48  H18       62.4940    2.4000   -3.5120 H     259  INH259      0.0238
     49  H19       63.1240    4.0780   -3.6290 H     259  INH259      0.0238
     50  H20       62.1400    4.4600   -7.2890 H     259  INH259      0.0274
     51  H21       63.7510    4.0000   -6.6420 H     259  INH259      0.0274
     52  H22       63.2710    6.4970   -6.5050 H     259  INH259      0.0269
     53  H23       63.6240    5.7430   -4.9130 H     259  INH259      0.0269
     54  H24       60.8920    6.5730   -6.0340 H     259  INH259      0.0310
     55  H25       61.7290    7.2130   -4.5790 H     259  INH259      0.0310
     56  H26       60.1100    0.7500   -5.0900 H     259  INH259      0.0310
     57  H27       59.4840    1.8310   -6.3810 H     259  INH259      0.0310
     58  H28       60.1640    2.5420   -3.4600 H     259  INH259      0.0274
     59  H29       58.7570    3.0670   -4.4460 H     259  INH259      0.0274
     60  H30       60.1800    4.2020   -6.0350 H     259  INH259      0.0354
     61  H31       60.2290    4.5130   -2.4810 H     259  INH259      0.0617
     62  H32       60.7480    7.5710   -2.7940 H     259  INH259      0.0617
     63  H33       62.4950    5.3310    0.0820 H     259  INH259      0.0338
     64  H34       60.9960    4.5940   -0.5790 H     259  INH259      0.0338
     65  H35       59.6480    5.6110    1.1720 H     259  INH259      0.0644
     66  H36       62.0200    4.4810    2.3280 H     259  INH259      0.2102
     67  H37       60.8700    8.8360   -0.8950 H     259  INH259      0.0338
     68  H38       62.4370    8.2970   -0.2020 H     259  INH259      0.0338
     69  H39       61.1140    9.0180    1.6530 H     259  INH259      0.0644
     70  H40       58.9480    8.1840    1.9350 H     259  INH259      0.2102
     71  H41       62.0510    6.1610    3.6690 H     259  INH259      0.0536
     72  H42       62.0020    8.0360    3.4700 H     259  INH259      0.0536
@<TRIPOS>BOND
     1     1    31    1
     2     1     2    1
     3     2     5    1
     4     2     4    1
     5     2     3    1
     6     3    34    1
     7     3    33    1
     8     3    32    1
     9     4    37    1
    10     4    36    1
    11     4    35    1
    12     5    39    1
    13     5    38    1
    14     5     6    1
    15     6    41    1
    16     6    40    1
    17     6     7    1
    18     7    43    1
    19     7    42    1
    20     7     8    1
    21     8    10    2
    22     8     9    1
    23     9    46    1
    24     9    45    1
    25     9    44    1
    26    10    16    1
    27    10    11    1
    28    11    18    1
    29    11    13    1
    30    11    12    1
    31    12    49    1
    32    12    48    1
    33    12    47    1
    34    13    51    1
    35    13    50    1
    36    13    14    1
    37    14    53    1
    38    14    52    1
    39    14    15    1
    40    15    55    1
    41    15    54    1
    42    15    19    1
    43    16    17    1
    44    16    57    1
    45    16    56    1
    46    17    18    1
    47    17    59    1
    48    17    58    1
    49    18    19    1
    50    18    60    1
    51    19    20    2
    52    20    61    1
    53    20    21    1
    54    21    62    1
    55    21    22    2
    56    22    26    1
    57    22    23    1
    58    23    64    1
    59    23    63    1
    60    23    24    1
    61    24    65    1
    62    24    29    1
    63    24    25    1
    64    25    66    1
    65    26    27    1
    66    26    68    1
    67    26    67    1
    68    27    29    1
    69    27    69    1
    70    27    28    1
    71    28    70    1
    72    29    30    2
    73    30    72    1
    74    30    71    1
