@<TRIPOS>MOLECULE
/tmp/ewbell/vina_2o4j_2o4j_lig/vina/vina3.pdbqt
 33 35 0 0 0
SMALL
GASTEIGER

@<TRIPOS>ATOM
      1  C7        61.5230    6.0290   -2.9930 C.2   259  INH259     -0.0810
      2  C8        61.5620    7.5320   -2.9530 C.3   259  INH259      0.0430
      3  C9        62.0710    5.4100   -4.0860 C.2   259  INH259     -0.0690
      4  C10       62.1730    3.9270   -4.3920 C.3   259  INH259     -0.0130
      5  C11       63.3270    3.3050   -3.5580 C.3   259  INH259      0.0210
      6  C12       60.9000    3.0720   -4.2800 C.3   259  INH259      0.0150
      7  C13       61.0910    1.6550   -4.9160 C.3   259  INH259      0.0050
      8  C14       61.6150    1.7500   -6.3620 C.3   259  INH259      0.0340
      9  C15       62.7400    6.2400   -5.1820 C.3   259  INH259      0.0360
     10  C16       63.4860    5.2370   -6.0780 C.3   259  INH259      0.0140
     11  C17       62.4830    4.0930   -5.8900 C.3   259  INH259      0.0270
     12  C18       62.8100    2.7080   -6.4000 C.2   259  INH259     -0.0750
     13  C19       64.0620    2.3310   -6.7760 C.2   259  INH259      0.0030
     14  C20       64.4100    0.9660   -7.2750 C.2   259  INH259      0.0030
     15  C21       65.3640    0.1490   -6.7490 C.2   259  INH259     -0.0740
     16  C24       65.6290   -1.2120   -7.3740 C.3   259  INH259      0.0700
     17  C22       66.1880    0.5350   -5.5140 C.3   259  INH259      0.0700
     18  C25       67.1300   -1.5360   -7.4370 C.3   259  INH259      0.1520
     19  C26       67.8090   -1.2280   -6.1310 C.2   259  INH259     -0.0320
     20  C23       67.6790    0.1920   -5.6950 C.3   259  INH259      0.1520
     21  C27       68.4680   -2.1770   -5.4850 C.2   259  INH259      0.0190
     22  O3        67.7660   -0.7550   -8.4710 O.3   259  INH259     -0.3910
     23  H40       67.9650   -1.3150   -9.2120 H     259  INH259      0.2100
     24  O2        68.4350    0.4160   -4.4720 O.3   259  INH259     -0.3910
     25  H36       68.0250    1.1110   -3.9720 H     259  INH259      0.2100
     26  C6        60.8780    5.3190   -1.8080 C.3   259  INH259      0.0340
     27  C5        61.9260    5.2140   -0.6750 C.3   259  INH259      0.0070
     28  C4        61.9630    6.3950    0.3200 C.3   259  INH259      0.0370
     29  C1        61.2340    6.1130    1.6390 C.3   259  INH259      0.0510
     30  C3        59.7860    6.6160    1.6310 C.3   259  INH259      0.0450
     31  C2        61.9950    6.7140    2.8140 C.3   259  INH259      0.0450
     32  O1        61.2650    4.7180    1.8490 O.3   259  INH259     -0.3910
     33  H1        61.0910    4.5330    2.7630 H     259  INH259      0.2100
@<TRIPOS>BOND
     1    23    22    1
     2    22    18    1
     3    18    16    1
     4    18    19    1
     5    16    15    1
     6    14    13    1
     7    14    15    2
     8    13    12    2
     9    15    17    1
    10    12     8    1
    11    12    11    1
    12     8     7    1
    13    19    20    1
    14    19    21    2
    15    10    11    1
    16    10     9    1
    17    11     4    1
    18    20    17    1
    19    20    24    1
    20     9     3    1
    21     7     6    1
    22    24    25    1
    23     4     6    1
    24     4     3    1
    25     4     5    1
    26     3     1    2
    27     1     2    1
    28     1    26    1
    29    26    27    1
    30    27    28    1
    31    28    29    1
    32    30    29    1
    33    29    32    1
    34    29    31    1
    35    32    33    1
