@<TRIPOS>MOLECULE
/tmp/ewbell/vina_2o4j_2o4j_lig/vina/vina1.pdbqt
 33 35 0 0 0
SMALL
GASTEIGER

@<TRIPOS>ATOM
      1  C7        62.1540    1.7540   -7.1350 C.2   259  INH259     -0.0810
      2  C8        61.3050    0.6470   -7.6950 C.3   259  INH259      0.0430
      3  C9        61.5380    2.6860   -6.3390 C.2   259  INH259     -0.0690
      4  C10       62.1380    3.8950   -5.6460 C.3   259  INH259     -0.0130
      5  C11       62.9090    3.4360   -4.3780 C.3   259  INH259      0.0210
      6  C12       62.9930    4.8630   -6.4820 C.3   259  INH259      0.0150
      7  C13       63.2740    6.1990   -5.7180 C.3   259  INH259      0.0050
      8  C14       61.9710    6.8470   -5.2110 C.3   259  INH259      0.0340
      9  C15       60.0530    2.5450   -6.0040 C.3   259  INH259      0.0360
     10  C16       59.7730    3.5610   -4.8840 C.3   259  INH259      0.0140
     11  C17       60.7980    4.5960   -5.3610 C.3   259  INH259      0.0270
     12  C18       61.1320    5.7870   -4.4910 C.2   259  INH259     -0.0750
     13  C19       60.7900    5.8660   -3.1770 C.2   259  INH259      0.0030
     14  C20       61.1160    7.0290   -2.2960 C.2   259  INH259      0.0030
     15  C21       61.4480    6.9560   -0.9780 C.2   259  INH259     -0.0740
     16  C24       61.7360    8.2270   -0.1940 C.3   259  INH259      0.0700
     17  C22       61.5700    5.6210   -0.2330 C.3   259  INH259      0.0700
     18  C25       61.1300    8.1850    1.2180 C.3   259  INH259      0.1520
     19  C26       61.4160    6.8730    1.8950 C.2   259  INH259     -0.0320
     20  C23       60.9070    5.6820    1.1570 C.3   259  INH259      0.1520
     21  C27       62.0500    6.8490    3.0560 C.2   259  INH259      0.0190
     22  O3        59.6980    8.3550    1.1510 O.3   259  INH259     -0.3910
     23  H40       59.3120    7.6110    0.7050 H     259  INH259      0.2100
     24  O2        61.1520    4.4700    1.9230 O.3   259  INH259     -0.3910
     25  H36       60.9930    3.7120    1.3740 H     259  INH259      0.2100
     26  C6        63.6350    1.7460   -7.4980 C.3   259  INH259      0.0340
     27  C5        64.3410    0.6720   -6.6390 C.3   259  INH259      0.0070
     28  C4        65.8730    0.8180   -6.5010 C.3   259  INH259      0.0370
     29  C1        66.6380   -0.4950   -6.7040 C.3   259  INH259      0.0510
     30  C3        67.3630   -0.9570   -5.4350 C.3   259  INH259      0.0450
     31  C2        67.6220   -0.3710   -7.8590 C.3   259  INH259      0.0450
     32  O1        65.7030   -1.4700   -7.1140 O.3   259  INH259     -0.3910
     33  H1        66.1640   -2.2500   -7.3940 H     259  INH259      0.2100
@<TRIPOS>BOND
     1    31    29    1
     2     2     1    1
     3    26     1    1
     4    26    27    1
     5    33    32    1
     6     1     3    2
     7    32    29    1
     8    29    28    1
     9    29    30    1
    10    27    28    1
    11     6     7    1
    12     6     4    1
    13     3     9    1
    14     3     4    1
    15     9    10    1
    16     7     8    1
    17     4    11    1
    18     4     5    1
    19    11    10    1
    20    11    12    1
    21     8    12    1
    22    12    13    2
    23    13    14    1
    24    14    15    2
    25    15    17    1
    26    15    16    1
    27    17    20    1
    28    16    18    1
    29    23    22    1
    30    22    18    1
    31    20    19    1
    32    20    24    1
    33    18    19    1
    34    25    24    1
    35    19    21    2
