@<TRIPOS>MOLECULE
/tmp/ewbell/vina_2o4j_2o4j_lig/vina/vina4.pdbqt
 33 35 0 0 0
SMALL
GASTEIGER

@<TRIPOS>ATOM
      1  C7        60.8920    6.5210   -0.7140 C.2   259  INH259     -0.0810
      2  C8        60.9150    7.9160   -0.1540 C.3   259  INH259      0.0430
      3  C9        61.0910    6.3770   -2.0630 C.2   259  INH259     -0.0690
      4  C10       61.1200    5.1060   -2.8930 C.3   259  INH259     -0.0130
      5  C11       62.4840    4.3880   -2.6920 C.3   259  INH259      0.0210
      6  C12       59.9560    4.1120   -2.7430 C.3   259  INH259      0.0150
      7  C13       59.9690    3.0260   -3.8690 C.3   259  INH259      0.0050
      8  C14       60.0260    3.6640   -5.2710 C.3   259  INH259      0.0340
      9  C15       61.3810    7.6020   -2.9310 C.3   259  INH259      0.0360
     10  C16       61.8360    7.0570   -4.2950 C.3   259  INH259      0.0140
     11  C17       60.9570    5.8020   -4.2560 C.3   259  INH259      0.0270
     12  C18       61.1370    4.7190   -5.2960 C.2   259  INH259     -0.0750
     13  C19       62.2210    4.6480   -6.1140 C.2   259  INH259      0.0030
     14  C20       62.4240    3.5820   -7.1430 C.2   259  INH259      0.0030
     15  C21       63.3760    2.6100   -7.1010 C.2   259  INH259     -0.0740
     16  C24       63.4820    1.5990   -8.2320 C.3   259  INH259      0.0700
     17  C22       64.3540    2.4680   -5.9280 C.3   259  INH259      0.0700
     18  C25       64.9430    1.3030   -8.6060 C.3   259  INH259      0.1520
     19  C26       65.7810    1.0630   -7.3800 C.2   259  INH259     -0.0320
     20  C23       65.7920    2.2000   -6.4160 C.3   259  INH259      0.1520
     21  C27       66.4460   -0.0730   -7.2420 C.2   259  INH259      0.0190
     22  O3        65.5100    2.4170   -9.3280 O.3   259  INH259     -0.3910
     23  H40       66.4560    2.3960   -9.2490 H     259  INH259      0.2100
     24  O2        66.6900    1.9140   -5.3080 O.3   259  INH259     -0.3910
     25  H36       66.7870    0.9750   -5.2150 H     259  INH259      0.2100
     26  C6        60.6500    5.3820    0.2690 C.3   259  INH259      0.0340
     27  C5        61.6610    5.5190    1.4300 C.3   259  INH259      0.0070
     28  C4        61.0650    5.9130    2.8010 C.3   259  INH259      0.0370
     29  C1        61.8640    6.9990    3.5300 C.3   259  INH259      0.0510
     30  C3        61.5820    8.4040    2.9850 C.3   259  INH259      0.0450
     31  C2        63.3560    6.6990    3.4730 C.3   259  INH259      0.0450
     32  O1        61.5220    6.9290    4.8980 O.3   259  INH259     -0.3910
     33  H1        61.2080    7.7770    5.1880 H     259  INH259      0.2100
@<TRIPOS>BOND
     1    22    23    1
     2    22    18    1
     3    18    16    1
     4    18    19    1
     5    16    15    1
     6    19    21    2
     7    19    20    1
     8    14    15    2
     9    14    13    1
    10    15    17    1
    11    20    17    1
    12    20    24    1
    13    13    12    2
    14    24    25    1
    15    12     8    1
    16    12    11    1
    17     8     7    1
    18    10    11    1
    19    10     9    1
    20    11     4    1
    21     7     6    1
    22     9     3    1
    23     4     6    1
    24     4     5    1
    25     4     3    1
    26     3     1    2
    27     1     2    1
    28     1    26    1
    29    26    27    1
    30    27    28    1
    31    28    29    1
    32    30    29    1
    33    31    29    1
    34    29    32    1
    35    32    33    1
