@<TRIPOS>MOLECULE
/tmp/ewbell/vina_2o4j_2o4j_lig/vina/vina5.pdbqt
 33 35 0 0 0
SMALL
GASTEIGER

@<TRIPOS>ATOM
      1  C7        48.6980   11.7510    4.6130 C.2   259  INH259     -0.0810
      2  C8        48.2690   10.7510    5.6510 C.3   259  INH259      0.0430
      3  C9        49.7970   12.5220    4.8900 C.2   259  INH259     -0.0690
      4  C10       50.4490   13.5960    4.0400 C.3   259  INH259     -0.0130
      5  C11       51.2950   12.9290    2.9200 C.3   259  INH259      0.0210
      6  C12       49.5550   14.7050    3.4580 C.3   259  INH259      0.0150
      7  C13       50.3980   15.8880    2.8780 C.3   259  INH259      0.0050
      8  C14       51.4080   16.4240    3.9120 C.3   259  INH259      0.0340
      9  C15       50.5730   12.3090    6.1900 C.3   259  INH259      0.0360
     10  C16       51.8780   13.1090    6.0400 C.3   259  INH259      0.0140
     11  C17       51.2740   14.2230    5.1780 C.3   259  INH259      0.0270
     12  C18       52.1730   15.2450    4.5220 C.2   259  INH259     -0.0750
     13  C19       53.5200   15.0880    4.4130 C.2   259  INH259      0.0030
     14  C20       54.4280   16.0810    3.7610 C.2   259  INH259      0.0030
     15  C21       54.6120   16.2260    2.4200 C.2   259  INH259     -0.0740
     16  C24       55.5880   17.2670    1.8940 C.3   259  INH259      0.0700
     17  C22       53.8480   15.3850    1.3900 C.3   259  INH259      0.0700
     18  C25       56.4140   16.7390    0.7100 C.3   259  INH259      0.1520
     19  C26       55.5400   16.0370   -0.2930 C.2   259  INH259     -0.0320
     20  C23       54.7750   14.8860    0.2640 C.3   259  INH259      0.1520
     21  C27       55.5160   16.4440   -1.5520 C.2   259  INH259      0.0190
     22  O3        57.4090   15.8020    1.1740 O.3   259  INH259     -0.3910
     23  H40       58.0130   15.6090    0.4680 H     259  INH259      0.2100
     24  O2        54.0270   14.2190   -0.7910 O.3   259  INH259     -0.3910
     25  H36       54.5210   13.4700   -1.1020 H     259  INH259      0.2100
     26  C6        47.8710   11.8220    3.3340 C.3   259  INH259      0.0340
     27  C5        47.9570   10.4520    2.6220 C.3   259  INH259      0.0070
     28  C4        49.3810    9.9590    2.2780 C.3   259  INH259      0.0370
     29  C1        49.7210    8.5900    2.8770 C.3   259  INH259      0.0510
     30  C3        48.4850    7.8610    3.4210 C.3   259  INH259      0.0450
     31  C2        50.7760    8.7260    3.9670 C.3   259  INH259      0.0450
     32  O1        50.3300    7.8220    1.8610 O.3   259  INH259     -0.3910
     33  H1        50.3370    6.9090    2.1180 H     259  INH259      0.2100
@<TRIPOS>BOND
     1    21    19    2
     2    25    24    1
     3    24    20    1
     4    19    20    1
     5    19    18    1
     6    20    17    1
     7    23    22    1
     8    18    22    1
     9    18    16    1
    10    17    15    1
    11    32    33    1
    12    32    29    1
    13    16    15    1
    14    28    27    1
    15    28    29    1
    16    15    14    2
    17    27    26    1
    18    29    30    1
    19    29    31    1
    20     7     6    1
    21     7     8    1
    22     5     4    1
    23    26     1    1
    24     6     4    1
    25    14    13    1
    26     8    12    1
    27     4     3    1
    28     4    11    1
    29    13    12    2
    30    12    11    1
    31     1     3    2
    32     1     2    1
    33     3     9    1
    34    11    10    1
    35    10     9    1
