@<TRIPOS>MOLECULE
./ligand/2fqw_lig.pdb
 31 33 0 0 0
SMALL
GASTEIGER

@<TRIPOS>ATOM
      1  O1        31.6380   62.7050   13.2340 O.3   319  INH319     -0.3924
      2  C1        31.3410   61.3630   13.6360 C.3   319  INH319      0.0730
      3  C2        32.3370   60.3630   13.0370 C.3   319  INH319      0.1126
      4  O2        32.2640   60.4650   11.6030 O.3   319  INH319     -0.3457
      5  C3        33.7930   60.6990   13.3670 C.3   319  INH319      0.1135
      6  C4        34.5090   59.9530   12.2430 C.3   319  INH319      0.1285
      7  O3        34.5300   58.5400   12.4790 O.3   319  INH319     -0.3847
      8  C5        33.5810   60.2460   11.0590 C.3   319  INH319      0.1667
      9  N1        34.0850   63.5740    9.7130 N.ar  319  INH319     -0.2286
     10  N2        33.9770   61.4890   10.3450 N.ar  319  INH319     -0.2855
     11  C6        34.7280   61.5340    9.2430 C.ar  319  INH319      0.1693
     12  N3        35.3520   60.5580    8.5640 N.ar  319  INH319     -0.2178
     13  C7        36.0580   60.8160    7.4740 C.ar  319  INH319      0.0984
     14  C8        35.5300   63.1760    7.6970 C.ar  319  INH319      0.2790
     15  N4        36.1660   62.1330    7.0050 N.ar  319  INH319     -0.3116
     16  O4        35.6300   64.3380    7.3000 O.2   319  INH319     -0.2654
     17  C9        34.7970   62.8630    8.8390 C.ar  319  INH319      0.1719
     18  C10       33.5960   62.7350   10.6260 C.ar  319  INH319      0.1005
     19  O5        34.1720   60.0970   14.6080 O.3   319  INH319     -0.3864
     20  H1        36.5550   60.0060    6.9420 H     319  INH319      0.1028
     21  H2        36.6950   62.3290    6.1790 H     319  INH319      0.1698
     22  H3        32.9780   63.0240   11.4740 H     319  INH319      0.1030
     23  H4        30.3270   61.1040   13.2970 H     319  INH319      0.0584
     24  H5        31.3880   61.3000   14.7330 H     319  INH319      0.0584
     25  H6        31.9620   63.1950   13.9800 H     319  INH319      0.2095
     26  H7        32.0920   59.3470   13.3800 H     319  INH319      0.0647
     27  H8        33.5810   59.3960   10.3610 H     319  INH319      0.0866
     28  H9        35.5290   60.3310   12.0830 H     319  INH319      0.0665
     29  H10       35.1040   58.3500   13.2120 H     319  INH319      0.2101
     30  H11       33.9920   61.7810   13.3690 H     319  INH319      0.0647
     31  H12       33.7370   60.5460   15.3230 H     319  INH319      0.2100
@<TRIPOS>BOND
     1     1    25    1
     2     1     2    1
     3     2    24    1
     4     2    23    1
     5     2     3    1
     6     3    26    1
     7     3     5    1
     8     3     4    1
     9     4     8    1
    10     5     6    1
    11     5    30    1
    12     5    19    1
    13     6     8    1
    14     6    28    1
    15     6     7    1
    16     7    29    1
    17     8    27    1
    18     8    10    1
    19     9    17   ar
    20     9    18   ar
    21    10    18   ar
    22    10    11   ar
    23    11    17   ar
    24    11    12   ar
    25    12    13   ar
    26    13    20    1
    27    13    15   ar
    28    14    15   ar
    29    14    17   ar
    30    14    16    2
    31    15    21    1
    32    18    22    1
    33    19    31    1
