@<TRIPOS>MOLECULE
/tmp/ewbell/vina_2fqw_2fqw_lig/vina/vina1.pdbqt
 25 27 0 0 0
SMALL
GASTEIGER

@<TRIPOS>ATOM
      1  N1        34.0900   63.4540    9.7880 N.pl3 319  INH319     -0.3450
      2  H1        33.9460   64.4620    9.7280 H     319  INH319      0.1670
      3  N2        33.9220   61.3800   10.4440 N.pl3 319  INH319     -0.2970
      4  C6        34.7820   61.4080    9.4250 C.2   319  INH319      0.1440
      5  N3        35.4760   60.4220    8.8310 N.pl3 319  INH319     -0.3360
      6  H3        35.3740   59.4660    9.1720 H     319  INH319      0.1680
      7  C7        36.2890   60.6640    7.8150 C.3   319  INH319      0.1850
      8  C8        35.7360   63.0250    7.9390 C.2   319  INH319      0.2770
      9  N4        36.4420   61.9730    7.3350 N.am  319  INH319     -0.3180
     10  O4        35.8740   64.1800    7.5330 O.2   319  INH319     -0.2660
     11  C9        34.8900   62.7300    9.0050 C.2   319  INH319      0.1460
     12  C10       33.5110   62.6290   10.6610 C.3   319  INH319      0.1880
     13  H2        37.0530   62.1560    6.5650 H     319  INH319      0.1690
     14  C5        33.4580   60.1480   11.1360 C.3   319  INH319      0.2620
     15  O2        32.1330   60.4130   11.6400 O.3   319  INH319     -0.3530
     16  C2        32.1580   60.3000   13.0750 C.3   319  INH319      0.1790
     17  C3        33.6140   60.5780   13.4530 C.3   319  INH319      0.1820
     18  C4        34.3360   59.8130   12.3460 C.3   319  INH319      0.1980
     19  C1        31.1820   61.3330   13.6500 C.3   319  INH319      0.1980
     20  O1        31.5870   62.6700   13.3370 O.3   319  INH319     -0.3980
     21  H6        30.8570   63.1410   12.9560 H     319  INH319      0.2090
     22  O5        33.9310   59.9540   14.7000 O.3   319  INH319     -0.3900
     23  H12       33.1440   59.8800   15.2250 H     319  INH319      0.2100
     24  O3        34.2970   58.3980   12.5720 O.3   319  INH319     -0.3880
     25  H10       34.6440   58.2060   13.4350 H     319  INH319      0.2100
@<TRIPOS>BOND
     1    13     9    1
     2     9     7    1
     3     9     8   am
     4    10     8    2
     5     7     5    1
     6     8    11    1
     7     5     6    1
     8     5     4    1
     9    11     4    2
    10    11     1    1
    11     4     3    1
    12     2     1    1
    13     1    12    1
    14     3    12    1
    15     3    14    1
    16    14    15    1
    17    14    18    1
    18    15    16    1
    19    18    24    1
    20    18    17    1
    21    24    25    1
    22    21    20    1
    23    16    17    1
    24    16    19    1
    25    20    19    1
    26    17    22    1
    27    22    23    1
