@<TRIPOS>MOLECULE
/tmp/ewbell/vina_2fqw_2fqw_lig/vina/vina3.pdbqt
 25 27 0 0 0
SMALL
GASTEIGER

@<TRIPOS>ATOM
      1  N1        33.9150   60.5240   10.5920 N.pl3 319  INH319     -0.3450
      2  H1        33.2330   60.6860   11.3320 H     319  INH319      0.1670
      3  N2        35.2980   59.5060    9.2460 N.pl3 319  INH319     -0.2970
      4  C6        35.3070   60.8000    8.9240 C.2   319  INH319      0.1440
      5  N3        35.9920   61.4670    7.9800 N.pl3 319  INH319     -0.3360
      6  H3        36.6330   60.9550    7.3750 H     319  INH319      0.1680
      7  C7        35.8540   62.7740    7.8190 C.3   319  INH319      0.1850
      8  C8        34.2530   62.8260    9.6440 C.2   319  INH319      0.2770
      9  N4        34.9780   63.4930    8.6440 N.am  319  INH319     -0.3180
     10  O4        33.4910   63.4510   10.3830 O.2   319  INH319     -0.2660
     11  C9        34.4260   61.4510    9.7810 C.2   319  INH319      0.1460
     12  C10       34.4530   59.3490   10.2660 C.3   319  INH319      0.1880
     13  H2        34.8700   64.4800    8.5210 H     319  INH319      0.1690
     14  C5        36.0400   58.4400    8.5220 C.3   319  INH319      0.2620
     15  O2        35.6050   58.4710    7.1480 O.3   319  INH319     -0.3530
     16  C2        34.9920   57.2080    6.8320 C.3   319  INH319      0.1790
     17  C3        34.5150   56.6690    8.1820 C.3   319  INH319      0.1820
     18  C4        35.7030   57.0470    9.0640 C.3   319  INH319      0.1980
     19  C1        33.8430   57.4680    5.8510 C.3   319  INH319      0.1980
     20  O1        32.7970   56.5020    5.9980 O.3   319  INH319     -0.3980
     21  H6        32.5100   56.2130    5.1410 H     319  INH319      0.2090
     22  O5        34.4280   55.2420    8.1450 O.3   319  INH319     -0.3900
     23  H12       35.1430   54.8950    7.6240 H     319  INH319      0.2100
     24  O3        36.8200   56.1780    8.8420 O.3   319  INH319     -0.3880
     25  H10       36.9090   55.5820    9.5770 H     319  INH319      0.2100
@<TRIPOS>BOND
     1    21    20    1
     2    19    20    1
     3    19    16    1
     4    16    15    1
     5    16    17    1
     6    15    14    1
     7     6     5    1
     8    23    22    1
     9     7     5    1
    10     7     9    1
    11     5     4    1
    12    22    17    1
    13    17    18    1
    14    13     9    1
    15    14    18    1
    16    14     3    1
    17     9     8   am
    18    24    18    1
    19    24    25    1
    20     4     3    1
    21     4    11    2
    22     3    12    1
    23     8    11    1
    24     8    10    2
    25    11     1    1
    26    12     1    1
    27     1     2    1
