@<TRIPOS>MOLECULE
/tmp/ewbell/vina_2fqw_2fqw_lig/vina/vina5.pdbqt
 25 27 0 0 0
SMALL
GASTEIGER

@<TRIPOS>ATOM
      1  N1        36.0970   62.5660   -0.2890 N.pl3 319  INH319     -0.3450
      2  H1        37.0200   62.9720   -0.4420 H     319  INH319      0.1670
      3  N2        34.2020   62.0470    0.6580 N.pl3 319  INH319     -0.2970
      4  C6        34.2160   61.4760   -0.5470 C.2   319  INH319      0.1440
      5  N3        33.3050   60.7060   -1.1660 N.pl3 319  INH319     -0.3360
      6  H3        32.4340   60.4810   -0.6860 H     319  INH319      0.1680
      7  C7        33.5130   60.2320   -2.3850 C.3   319  INH319      0.1850
      8  C8        35.6810   61.3260   -2.4340 C.2   319  INH319      0.2770
      9  N4        34.7070   60.5310   -3.0570 N.am  319  INH319     -0.3180
     10  O4        36.7380   61.5830   -3.0120 O.2   319  INH319     -0.2660
     11  C9        35.4240   61.8060   -1.1520 C.2   319  INH319      0.1460
     12  C10       35.3530   62.7030    0.8080 C.3   319  INH319      0.1880
     13  H2        34.8650   60.1770   -3.9790 H     319  INH319      0.1690
     14  C5        33.0570   62.0140    1.6070 C.3   319  INH319      0.2620
     15  O2        31.8490   62.0690    0.8220 O.3   319  INH319     -0.3530
     16  C2        31.1260   63.2630    1.1750 C.3   319  INH319      0.1790
     17  C3        32.2020   64.2130    1.7070 C.3   319  INH319      0.1820
     18  C4        33.0470   63.2400    2.5260 C.3   319  INH319      0.1980
     19  C1        30.4330   63.7900   -0.0870 C.3   319  INH319      0.1980
     20  O1        30.0550   65.1640    0.0560 O.3   319  INH319     -0.3980
     21  H6        30.8190   65.6810    0.2790 H     319  INH319      0.2090
     22  O5        31.6240   65.1620    2.6080 O.3   319  INH319     -0.3900
     23  H12       32.1860   65.9260    2.6660 H     319  INH319      0.2100
     24  O3        32.4040   62.8920    3.7590 O.3   319  INH319     -0.3880
     25  H10       32.6310   63.5300    4.4250 H     319  INH319      0.2100
@<TRIPOS>BOND
     1    13     9    1
     2     9     8   am
     3     9     7    1
     4    10     8    2
     5     8    11    1
     6     7     5    1
     7     5     6    1
     8     5     4    1
     9    11     4    2
    10    11     1    1
    11     4     3    1
    12     2     1    1
    13     1    12    1
    14    19    20    1
    15    19    16    1
    16    20    21    1
    17     3    12    1
    18     3    14    1
    19    15    16    1
    20    15    14    1
    21    16    17    1
    22    14    18    1
    23    17    18    1
    24    17    22    1
    25    18    24    1
    26    22    23    1
    27    24    25    1
