@<TRIPOS>MOLECULE
/tmp/ewbell/vina_2fqw_2fqw_lig/vina/vina2.pdbqt
 25 27 0 0 0
SMALL
GASTEIGER

@<TRIPOS>ATOM
      1  N1        33.8710   62.2330   10.2090 N.pl3 319  INH319     -0.3450
      2  H1        33.4640   63.1610   10.0920 H     319  INH319      0.1670
      3  N2        35.0280   60.4230    9.8270 N.pl3 319  INH319     -0.2970
      4  C6        34.4260   60.2710   11.0070 C.2   319  INH319      0.1440
      5  N3        34.4460   59.2490   11.8800 N.pl3 319  INH319     -0.3360
      6  H3        34.9950   58.4180   11.6610 H     319  INH319      0.1680
      7  C7        33.7700   59.2970   13.0170 C.3   319  INH319      0.1850
      8  C8        32.9610   61.5130   12.4380 C.2   319  INH319      0.2770
      9  N4        33.0090   60.4330   13.3320 N.am  319  INH319     -0.3180
     10  O4        32.2860   62.5090   12.7000 O.2   319  INH319     -0.2660
     11  C9        33.6880   61.4240   11.2520 C.2   319  INH319      0.1460
     12  C10       34.6790   61.6170    9.3460 C.3   319  INH319      0.1880
     13  H2        32.5000   60.4720   14.1920 H     319  INH319      0.1690
     14  C5        35.9810   59.4550    9.2230 C.3   319  INH319      0.2620
     15  O2        36.4280   60.0170    7.9720 O.3   319  INH319     -0.3530
     16  C2        36.0320   59.1350    6.9060 C.3   319  INH319      0.1790
     17  C3        34.8250   58.3800    7.4660 C.3   319  INH319      0.1820
     18  C4        35.3010   58.1210    8.8940 C.3   319  INH319      0.1980
     19  C1        35.6870   59.9940    5.6830 C.3   319  INH319      0.1980
     20  O1        35.6450   61.3860    6.0140 O.3   319  INH319     -0.3980
     21  H6        35.6610   61.4880    6.9570 H     319  INH319      0.2090
     22  O5        34.6830   57.1160    6.8120 O.3   319  INH319     -0.3900
     23  H12       34.5770   56.4330    7.4630 H     319  INH319      0.2100
     24  O3        36.2800   57.0760    8.9410 O.3   319  INH319     -0.3880
     25  H10       36.0100   56.4180    9.5720 H     319  INH319      0.2100
@<TRIPOS>BOND
     1    19    20    1
     2    19    16    1
     3    20    21    1
     4    22    23    1
     5    22    17    1
     6    16    17    1
     7    16    15    1
     8    17    18    1
     9    15    14    1
    10    18    24    1
    11    18    14    1
    12    24    25    1
    13    14     3    1
    14    12     3    1
    15    12     1    1
    16     3     4    1
    17     2     1    1
    18     1    11    1
    19     4    11    2
    20     4     5    1
    21    11     8    1
    22     6     5    1
    23     5     7    1
    24     8    10    2
    25     8     9   am
    26     7     9    1
    27     9    13    1
