@<TRIPOS>MOLECULE
/tmp/ewbell/vina_2fqw_2fqw_lig/vina/vina4.pdbqt
 25 27 0 0 0
SMALL
GASTEIGER

@<TRIPOS>ATOM
      1  N1        33.5560   62.4670   10.5620 N.pl3 319  INH319     -0.3450
      2  H1        33.1470   63.4010   10.5520 H     319  INH319      0.1670
      3  N2        34.7010   60.7080    9.9650 N.pl3 319  INH319     -0.2970
      4  C6        34.1290   60.4340   11.1390 C.2   319  INH319      0.1440
      5  N3        34.1720   59.3280   11.9000 N.pl3 319  INH319     -0.3360
      6  H3        34.7140   58.5240   11.5820 H     319  INH319      0.1680
      7  C7        33.5250   59.2570   13.0530 C.3   319  INH319      0.1850
      8  C8        32.7040   61.5190   12.7270 C.2   319  INH319      0.2770
      9  N4        32.7740   60.3520   13.5040 N.am  319  INH319     -0.3180
     10  O4        32.0370   62.4810   13.1080 O.2   319  INH319     -0.2660
     11  C9        33.3990   61.5540   11.5210 C.2   319  INH319      0.1460
     12  C10       34.3410   61.9450    9.6200 C.3   319  INH319      0.1880
     13  H2        32.2880   60.3010   14.3760 H     319  INH319      0.1690
     14  C5        35.6370   59.8090    9.2390 C.3   319  INH319      0.2620
     15  O2        36.9160   60.4710    9.1910 O.3   319  INH319     -0.3530
     16  C2        37.2640   60.6990    7.8130 C.3   319  INH319      0.1790
     17  C3        35.9190   60.7310    7.0830 C.3   319  INH319      0.1820
     18  C4        35.1960   59.5860    7.7880 C.3   319  INH319      0.1980
     19  C1        38.0240   62.0270    7.7270 C.3   319  INH319      0.1980
     20  O1        37.1400   63.1470    7.8490 O.3   319  INH319     -0.3980
     21  H6        36.3500   62.9820    7.3510 H     319  INH319      0.2090
     22  O5        36.0910   60.3670    5.7110 O.3   319  INH319     -0.3900
     23  H12       37.0170   60.3570    5.4990 H     319  INH319      0.2100
     24  O3        35.6760   58.3100    7.3480 O.3   319  INH319     -0.3880
     25  H10       35.0780   57.6300    7.6350 H     319  INH319      0.2100
@<TRIPOS>BOND
     1    23    22    1
     2    22    17    1
     3    17    18    1
     4    17    16    1
     5    24    25    1
     6    24    18    1
     7    21    20    1
     8    19    16    1
     9    19    20    1
    10    18    14    1
    11    16    15    1
    12    15    14    1
    13    14     3    1
    14    12     3    1
    15    12     1    1
    16     3     4    1
    17     2     1    1
    18     1    11    1
    19     4    11    2
    20     4     5    1
    21    11     8    1
    22     6     5    1
    23     5     7    1
    24     8    10    2
    25     8     9   am
    26     7     9    1
    27     9    13    1
