@<TRIPOS>MOLECULE
./ligand/1nc1_lig.pdb
 36 38 0 0 0
SMALL
GASTEIGER

@<TRIPOS>ATOM
      1  C1        56.1220   68.5800   22.5810 C.3   471  INH471     -0.0180
      2  S1        55.5060   70.2220   23.1270 S.3   471  INH471     -0.1615
      3  C2        56.1640   71.2620   21.7830 C.3   471  INH471      0.0223
      4  C3        57.6240   71.6620   21.9930 C.3   471  INH471      0.0986
      5  O1        58.1860   72.1790   20.7460 O.3   471  INH471     -0.3472
      6  C4        57.6370   74.0500   22.0740 C.3   471  INH471      0.1284
      7  O2        58.4560   75.1950   22.4790 O.3   471  INH471     -0.3847
      8  C5        57.8490   72.7630   23.0050 C.3   471  INH471      0.1121
      9  O3        59.2470   72.6590   23.4810 O.3   471  INH471     -0.3865
     10  C6        57.9320   73.6160   20.5860 C.3   471  INH471      0.1652
     11  N1        56.7560   73.7550   19.5220 N.ar  471  INH471     -0.3053
     12  C7        56.8850   73.4570   18.1670 C.ar  471  INH471      0.0093
     13  C8        55.7740   73.6300   17.4720 C.ar  471  INH471     -0.0353
     14  C9        54.8540   74.0650   18.4100 C.ar  471  INH471      0.0395
     15  C10       53.4720   74.4260   18.3490 C.3   471  INH471      0.1822
     16  N2        52.7670   74.3890   17.2120 N.3   471  INH471     -0.2998
     17  N3        52.8650   74.8210   19.5290 N.2   471  INH471     -0.2436
     18  C11       53.5650   74.8590   20.6740 C.2   471  INH471      0.1048
     19  N4        54.8660   74.5410   20.8430 N.pl3 471  INH471     -0.1857
     20  C12       55.4440   74.1530   19.6710 C.ar  471  INH471      0.1332
     21  H1        55.8050   67.8110   23.3010 H     471  INH471      0.0341
     22  H2        57.2200   68.6000   22.5260 H     471  INH471      0.0341
     23  H3        55.7090   68.3450   21.5890 H     471  INH471      0.0341
     24  H4        55.5560   72.1770   21.7190 H     471  INH471      0.0402
     25  H5        56.0870   70.7030   20.8380 H     471  INH471      0.0402
     26  H6        58.1780   70.7670   22.3120 H     471  INH471      0.0632
     27  H7        56.5830   74.3570   22.1460 H     471  INH471      0.0665
     28  H8        59.3760   74.9710   22.3980 H     471  INH471      0.2101
     29  H9        57.1420   72.7320   23.8470 H     471  INH471      0.0647
     30  H10       59.4680   73.4330   23.9850 H     471  INH471      0.2100
     31  H11       58.8150   74.1540   20.2100 H     471  INH471      0.0866
     32  H12       57.8170   73.1130   17.7210 H     471  INH471      0.0810
     33  H13       55.6180   73.4680   16.4060 H     471  INH471      0.0637
     34  H14       51.7730   74.6580   17.2140 H     471  INH471      0.1208
     35  H15       53.2190   74.0920   16.3350 H     471  INH471      0.1208
     36  H16       53.0270   75.1800   21.5590 H     471  INH471      0.1015
@<TRIPOS>BOND
     1     1     2    1
     2     1    23    1
     3     1    22    1
     4     1    21    1
     5     2     3    1
     6     3     4    1
     7     3    25    1
     8     3    24    1
     9     4     8    1
    10     4    26    1
    11     4     5    1
    12     5    10    1
    13     6    27    1
    14     6    10    1
    15     6     8    1
    16     6     7    1
    17     7    28    1
    18     8    29    1
    19     8     9    1
    20     9    30    1
    21    10    31    1
    22    10    11    1
    23    11    20   ar
    24    11    12   ar
    25    12    32    1
    26    12    13   ar
    27    13    33    1
    28    13    14   ar
    29    14    20   ar
    30    14    15    1
    31    15    17    1
    32    15    16    1
    33    16    35    1
    34    16    34    1
    35    17    18    2
    36    18    36    1
    37    18    19    1
    38    19    20    1
