@<TRIPOS>MOLECULE
/tmp/ewbell/vina_1nc1_1nc1_lig/vina/vina2.pdbqt
 26 28 0 0 0
SMALL
GASTEIGER

@<TRIPOS>ATOM
      1  N1        45.7050   76.9930   23.9610 N.pl3 471  INH471     -0.3130
      2  C7        44.9320   76.4270   24.9730 C.2   471  INH471      0.0960
      3  C8        44.5280   75.1960   24.7140 C.2   471  INH471      0.0320
      4  C9        45.0560   74.9230   23.4650 C.2   471  INH471      0.0380
      5  C10       45.0040   73.7920   22.5920 C.2   471  INH471      0.6700
      6  N3        45.6720   73.8900   21.3830 N.pl3 471  INH471     -0.3540
      7  H3        45.6580   73.1050   20.7320 H     471  INH471      0.1620
      8  C11       46.3390   75.0100   21.0640 C.3   471  INH471      0.1790
      9  N4        46.4530   76.1300   21.8090 N.3   471  INH471     -0.3380
     10  C12       45.7860   76.0140   22.9930 C.3   471  INH471      0.1200
     11  H         46.9550   76.9310   21.5330 H     471  INH471      0.1680
     12  C6        46.3030   78.4670   24.0080 C.3   471  INH471      0.2600
     13  O1        46.7260   78.7050   25.3940 O.3   471  INH471     -0.3550
     14  C3        45.7850   79.5640   26.1110 C.3   471  INH471      0.1650
     15  C5        45.3360   80.5850   25.0900 C.3   471  INH471      0.1800
     16  C4        45.3140   79.6740   23.7720 C.3   471  INH471      0.1980
     17  C2        44.6660   78.7200   26.7210 C.3   471  INH471      0.1080
     18  S1        44.7580   78.6150   28.5380 S.3   471  INH471     -0.1710
     19  C1        45.3390   80.3150   28.9200 C.3   471  INH471      0.0890
     20  O3        46.3800   81.6320   25.0110 O.3   471  INH471     -0.3900
     21  H10       46.0510   82.3680   24.5080 H     471  INH471      0.2100
     22  O2        45.6440   80.4160   22.5530 O.3   471  INH471     -0.3880
     23  H8        45.1390   80.0710   21.8250 H     471  INH471      0.2100
     24  N2        44.3390   72.6730   22.9020 N.pl3 471  INH471     -0.0960
     25  H15       44.6410   72.0990   23.7030 H     471  INH471      0.2600
     26  H14       43.5260   72.3850   22.3390 H     471  INH471      0.2600
@<TRIPOS>BOND
     1     7     6    1
     2     8     6    1
     3     8     9    1
     4     6     5    1
     5    11     9    1
     6     9    10    1
     7    23    22    1
     8    26    24    1
     9    22    16    1
    10     5    24    1
    11     5     4    2
    12    24    25    1
    13    10     4    1
    14    10     1    1
    15     4     3    1
    16    16    12    1
    17    16    15    1
    18     1    12    1
    19     1     2    1
    20    12    13    1
    21    21    20    1
    22     3     2    2
    23    20    15    1
    24    15    14    1
    25    13    14    1
    26    14    17    1
    27    17    18    1
    28    18    19    1
