@<TRIPOS>MOLECULE
/tmp/ewbell/vina_1nc1_1nc1_lig/vina/vina4.pdbqt
 26 28 0 0 0
SMALL
GASTEIGER

@<TRIPOS>ATOM
      1  N1        45.0260   73.8380   22.7270 N.pl3 471  INH471     -0.3130
      2  C7        43.9680   74.0190   23.6160 C.2   471  INH471      0.0960
      3  C8        43.9070   75.2330   24.1370 C.2   471  INH471      0.0320
      4  C9        44.9790   75.8980   23.5680 C.2   471  INH471      0.0380
      5  C10       45.5020   77.2230   23.6920 C.2   471  INH471      0.6700
      6  N3        46.6260   77.5360   22.9460 N.pl3 471  INH471     -0.3540
      7  H3        47.0300   78.4700   23.0070 H     471  INH471      0.1620
      8  C11       47.1850   76.6170   22.1420 C.3   471  INH471      0.1790
      9  N4        46.7760   75.3450   21.9510 N.3   471  INH471     -0.3380
     10  C12       45.6710   75.0570   22.6960 C.3   471  INH471      0.1200
     11  H         47.2200   74.7050   21.3490 H     471  INH471      0.1680
     12  C6        45.3400   72.4710   21.9750 C.3   471  INH471      0.2600
     13  O1        45.1950   72.7380   20.5390 O.3   471  INH471     -0.3550
     14  C3        43.9420   72.2020   20.0090 C.3   471  INH471      0.1650
     15  C5        43.7460   70.8890   20.7340 C.3   471  INH471      0.1800
     16  C4        44.3360   71.2700   22.1740 C.3   471  INH471      0.1980
     17  C2        42.8170   73.2200   20.1940 C.3   471  INH471      0.1080
     18  S1        41.1800   72.4470   20.4080 S.3   471  INH471     -0.1710
     19  C1        40.8200   72.9530   22.1370 C.3   471  INH471      0.0890
     20  O3        44.5790   69.8710   20.0560 O.3   471  INH471     -0.3900
     21  H10       44.9050   69.2510   20.6970 H     471  INH471      0.2100
     22  O2        44.9700   70.1390   22.8550 O.3   471  INH471     -0.3880
     23  H8        44.2990   69.5440   23.1720 H     471  INH471      0.2100
     24  N2        44.9510   78.1430   24.4920 N.pl3 471  INH471     -0.0960
     25  H15       45.1050   78.0990   25.5100 H     471  INH471      0.2600
     26  H14       44.3730   78.8940   24.0900 H     471  INH471      0.2600
@<TRIPOS>BOND
     1    14    17    1
     2    14    13    1
     3    14    15    1
     4    20    21    1
     5    20    15    1
     6    17    18    1
     7    18    19    1
     8    13    12    1
     9    15    16    1
    10    11     9    1
    11     9     8    1
    12     9    10    1
    13    12    16    1
    14    12     1    1
    15     8     6    1
    16    16    22    1
    17    10     1    1
    18    10     4    1
    19     1     2    1
    20    22    23    1
    21     6     7    1
    22     6     5    1
    23     4     5    2
    24     4     3    1
    25     2     3    2
    26     5    24    1
    27    26    24    1
    28    24    25    1
