@<TRIPOS>MOLECULE
/tmp/ewbell/vina_1nc1_1nc1_lig/vina/vina1.pdbqt
 26 28 0 0 0
SMALL
GASTEIGER

@<TRIPOS>ATOM
      1  N1        44.0460   74.7420   23.0210 N.pl3 471  INH471     -0.3130
      2  C7        45.1860   75.4430   23.4070 C.2   471  INH471      0.0960
      3  C8        45.2740   75.6480   24.7100 C.2   471  INH471      0.0320
      4  C9        44.1340   75.0540   25.2220 C.2   471  INH471      0.0380
      5  C10       43.5970   74.9120   26.5390 C.2   471  INH471      0.6700
      6  N3        42.3950   74.2370   26.6670 N.pl3 471  INH471     -0.3540
      7  H3        41.9780   74.1160   27.5900 H     471  INH471      0.1620
      8  C11       41.7750   73.7420   25.5840 C.3   471  INH471      0.1790
      9  N4        42.1900   73.8190   24.3020 N.3   471  INH471     -0.3380
     10  C12       43.3740   74.4880   24.1980 C.3   471  INH471      0.1200
     11  H         41.7000   73.4400   23.5370 H     471  INH471      0.1680
     12  C6        43.6850   74.3780   21.5130 C.3   471  INH471      0.2600
     13  O1        42.7540   73.2440   21.5660 O.3   471  INH471     -0.3550
     14  C3        43.4110   71.9840   21.2240 C.3   471  INH471      0.1650
     15  C5        44.3790   72.3400   20.1180 C.3   471  INH471      0.1800
     16  C4        44.8320   73.8000   20.5980 C.3   471  INH471      0.1980
     17  C2        44.0470   71.3690   22.4700 C.3   471  INH471      0.1080
     18  S1        45.5030   70.3390   22.0980 S.3   471  INH471     -0.1710
     19  C1        44.6650   68.8410   21.4430 C.3   471  INH471      0.0890
     20  O3        43.6150   72.3950   18.8510 O.3   471  INH471     -0.3900
     21  H10       42.9210   73.0380   18.9280 H     471  INH471      0.2100
     22  O2        45.1470   74.7000   19.4860 O.3   471  INH471     -0.3880
     23  H8        46.0010   75.0930   19.6290 H     471  INH471      0.2100
     24  N2        44.2080   75.4040   27.6230 N.pl3 471  INH471     -0.0960
     25  H15       43.7080   76.0560   28.2450 H     471  INH471      0.2600
     26  H14       45.1780   75.1310   27.8360 H     471  INH471      0.2600
@<TRIPOS>BOND
     1    20    21    1
     2    20    15    1
     3    22    23    1
     4    22    16    1
     5    15    16    1
     6    15    14    1
     7    16    12    1
     8    14    13    1
     9    14    17    1
    10    19    18    1
    11    12    13    1
    12    12     1    1
    13    18    17    1
    14     1     2    1
    15     1    10    1
    16     2     3    2
    17    11     9    1
    18    10     9    1
    19    10     4    1
    20     9     8    1
    21     3     4    1
    22     4     5    2
    23     8     6    1
    24     5     6    1
    25     5    24    1
    26     6     7    1
    27    24    26    1
    28    24    25    1
