@<TRIPOS>MOLECULE
/tmp/ewbell/vina_1nc1_1nc1_lig/vina/vina3.pdbqt
 26 28 0 0 0
SMALL
GASTEIGER

@<TRIPOS>ATOM
      1  N1        44.2850   77.1030   24.3030 N.pl3 471  INH471     -0.3130
      2  C7        43.4410   76.1250   24.8270 C.2   471  INH471      0.0960
      3  C8        43.7240   74.8990   24.4220 C.2   471  INH471      0.0320
      4  C9        44.8120   75.0650   23.5820 C.2   471  INH471      0.0380
      5  C10       45.6100   74.1680   22.8050 C.2   471  INH471      0.6700
      6  N3        46.6430   74.7150   22.0640 N.pl3 471  INH471     -0.3540
      7  H3        47.2350   74.1090   21.4950 H     471  INH471      0.1620
      8  C11       46.8730   76.0370   22.0900 C.3   471  INH471      0.1790
      9  N4        46.1850   76.9690   22.7840 N.3   471  INH471     -0.3380
     10  C12       45.1710   76.4110   23.5050 C.3   471  INH471      0.1200
     11  H         46.3900   77.9320   22.7720 H     471  INH471      0.1680
     12  C6        44.1540   78.6590   24.6120 C.3   471  INH471      0.2600
     13  O1        45.4350   79.2710   24.2360 O.3   471  INH471     -0.3550
     14  C3        46.2550   79.5800   25.4070 C.3   471  INH471      0.1650
     15  C5        45.2720   80.0530   26.4540 C.3   471  INH471      0.1800
     16  C4        44.0250   79.1030   26.1210 C.3   471  INH471      0.1980
     17  C2        47.0870   78.3610   25.8010 C.3   471  INH471      0.1080
     18  S1        46.9260   77.9230   27.5620 S.3   471  INH471     -0.1710
     19  C1        45.9580   76.3690   27.4110 C.3   471  INH471      0.0890
     20  O3        44.9640   81.4740   26.1750 O.3   471  INH471     -0.3900
     21  H10       44.1670   81.7210   26.6290 H     471  INH471      0.2100
     22  O2        42.7310   79.7340   26.3930 O.3   471  INH471     -0.3880
     23  H8        42.5440   80.3770   25.7180 H     471  INH471      0.2100
     24  N2        45.3860   72.8490   22.7720 N.pl3 471  INH471     -0.0960
     25  H15       46.1560   72.2010   22.5510 H     471  INH471      0.2600
     26  H14       44.4440   72.4810   22.9680 H     471  INH471      0.2600
@<TRIPOS>BOND
     1     7     6    1
     2     6     8    1
     3     6     5    1
     4     8     9    1
     5    25    24    1
     6    24     5    1
     7    24    26    1
     8    11     9    1
     9     9    10    1
    10     5     4    2
    11    10     4    1
    12    10     1    1
    13     4     3    1
    14    13    12    1
    15    13    14    1
    16     1    12    1
    17     1     2    1
    18     3     2    2
    19    12    16    1
    20    14    17    1
    21    14    15    1
    22    23    22    1
    23    17    18    1
    24    16    22    1
    25    16    15    1
    26    20    15    1
    27    20    21    1
    28    19    18    1
