@<TRIPOS>MOLECULE
/tmp/ewbell/vina_1nc1_1nc1_lig/vina/vina5.pdbqt
 26 28 0 0 0
SMALL
GASTEIGER

@<TRIPOS>ATOM
      1  N1        45.3000   73.4590   21.7610 N.pl3 471  INH471     -0.3130
      2  C7        44.5370   73.8220   20.6540 C.2   471  INH471      0.0960
      3  C8        44.0940   72.7960   19.9480 C.2   471  INH471      0.0320
      4  C9        44.5870   71.6890   20.6160 C.2   471  INH471      0.0380
      5  C10       44.4990   70.2790   20.3980 C.2   471  INH471      0.6700
      6  N3        45.1430   69.4530   21.3030 N.pl3 471  INH471     -0.3540
      7  H3        45.1050   68.4420   21.1810 H     471  INH471      0.1620
      8  C11       45.8160   69.9760   22.3400 C.3   471  INH471      0.1790
      9  N4        45.9620   71.2850   22.6390 N.3   471  INH471     -0.3380
     10  C12       45.3230   72.0800   21.7350 C.3   471  INH471      0.1200
     11  H         46.4680   71.6230   23.4140 H     471  INH471      0.1680
     12  C6        45.9690   74.4950   22.7680 C.3   471  INH471      0.2600
     13  O1        45.3820   74.2360   24.0880 O.3   471  INH471     -0.3550
     14  C3        44.3840   75.2430   24.4470 C.3   471  INH471      0.1650
     15  C5        44.9410   76.5460   23.9180 C.3   471  INH471      0.1800
     16  C4        45.6450   76.0270   22.5750 C.3   471  INH471      0.1980
     17  C2        43.0170   74.8480   23.8910 C.3   471  INH471      0.1080
     18  S1        41.7850   74.5100   25.1900 S.3   471  INH471     -0.1710
     19  C1        42.8800   74.5080   26.6650 C.3   471  INH471      0.0890
     20  O3        45.9340   77.0430   24.8960 O.3   471  INH471     -0.3900
     21  H10       46.7950   76.7140   24.6690 H     471  INH471      0.2100
     22  O2        46.8400   76.7950   22.2170 O.3   471  INH471     -0.3880
     23  H8        47.5370   76.1990   21.9680 H     471  INH471      0.2100
     24  N2        43.8310   69.7500   19.3650 N.pl3 471  INH471     -0.0960
     25  H15       43.0480   70.2670   18.9390 H     471  INH471      0.2600
     26  H14       44.1000   68.8270   18.9970 H     471  INH471      0.2600
@<TRIPOS>BOND
     1    25    24    1
     2    26    24    1
     3    24     5    1
     4     3     4    1
     5     3     2    2
     6     5     4    2
     7     5     6    1
     8     4    10    1
     9     2     1    1
    10     7     6    1
    11     6     8    1
    12    10     1    1
    13    10     9    1
    14     1    12    1
    15    23    22    1
    16    22    16    1
    17     8     9    1
    18    16    12    1
    19    16    15    1
    20     9    11    1
    21    12    13    1
    22    17    14    1
    23    17    18    1
    24    15    14    1
    25    15    20    1
    26    13    14    1
    27    21    20    1
    28    18    19    1
