@<TRIPOS>MOLECULE
./ligand/1ydk_lig.pdb
 54 53 0 0 0
SMALL
GASTEIGER

@<TRIPOS>ATOM
      1  N1        25.8140   24.1410   13.1200 N.4   431  INH431      0.2289
      2  C1        26.6160   25.2300   12.5920 C.3   431  INH431      0.0790
      3  C2        27.1920   24.8350   11.2590 C.2   431  INH431      0.4026
      4  O1        27.5250   25.7060   10.4230 O.co2 431  INH431     -0.2400
      5  C3        27.7430   25.5880   13.5610 C.3   431  INH431      0.0091
      6  C4        28.3650   26.9360   13.1990 C.3   431  INH431      0.0296
      7  O2        27.3500   23.6320   10.9700 O.co2 431  INH431     -0.2400
      8  H1        25.4300   24.4090   14.0130 H     431  INH431      0.2002
      9  H2        26.3920   23.3230   13.2350 H     431  INH431      0.2002
     10  H3        25.0630   23.9350   12.4790 H     431  INH431      0.2002
     11  H4        25.9720   26.1120   12.4560 H     431  INH431      0.0970
     12  H5        28.5190   24.8090   13.5150 H     431  INH431      0.0330
     13  H6        27.3370   25.6410   14.5820 H     431  INH431      0.0330
     14  H7        27.5760   27.7020   13.1810 H     431  INH431      0.0360
     15  H8        28.8280   26.8630   12.2040 H     431  INH431      0.0360
     16  N2        30.2640   28.3060   13.8560 N.am  431  INH431     -0.3033
     17  C5        31.2080   28.8780   14.8040 C.3   431  INH431      0.1083
     18  C6        30.8970   30.3270   15.0190 C.2   431  INH431      0.2346
     19  O3        30.6400   31.1440   13.9020 O.2   431  INH431     -0.2737
     20  C7        32.6350   28.8050   14.2580 C.3   431  INH431      0.0206
     21  S1        33.1360   27.1560   13.7270 S.3   431  INH431     -0.1584
     22  H9        30.2470   28.6490   12.9170 H     431  INH431      0.1495
     23  H10       31.1430   28.3320   15.7570 H     431  INH431      0.0603
     24  H11       33.3250   29.1380   15.0480 H     431  INH431      0.0399
     25  H12       32.7100   29.4830   13.3950 H     431  INH431      0.0399
     26  O4        29.4730   26.7140   15.4620 O.2   431  INH431     -0.2758
     27  C8        29.4220   27.3370   14.2080 C.2   431  INH431      0.2138
     28  C9        33.8320   26.7590   15.3520 C.3   431  INH431     -0.0062
     29  C10       35.1720   26.0400   15.2400 C.3   431  INH431     -0.0440
     30  C11       35.0020   24.5240   15.2500 C.3   431  INH431     -0.0523
     31  C12       36.0700   23.8270   16.0930 C.3   431  INH431     -0.0533
     32  C13       37.4510   23.8420   15.4450 C.3   431  INH431     -0.0559
     33  C14       38.5440   23.7660   16.5110 C.3   431  INH431     -0.0653
     34  H13       33.1260   26.1110   15.8920 H     431  INH431      0.0376
     35  H14       33.9760   27.6930   15.9140 H     431  INH431      0.0376
     36  H15       35.8060   26.3330   16.0900 H     431  INH431      0.0273
     37  H16       35.6590   26.3380   14.3000 H     431  INH431      0.0273
     38  H17       35.0690   24.1530   14.2170 H     431  INH431      0.0266
     39  H18       34.0120   24.2820   15.6630 H     431  INH431      0.0266
     40  H19       35.7670   22.7810   16.2460 H     431  INH431      0.0265
     41  H20       36.1350   24.3360   17.0660 H     431  INH431      0.0265
     42  H21       37.5710   24.7720   14.8700 H     431  INH431      0.0263
     43  H22       37.5430   22.9790   14.7700 H     431  INH431      0.0263
     44  H23       39.5310   23.7780   16.0260 H     431  INH431      0.0230
     45  H24       38.4300   22.8360   17.0870 H     431  INH431      0.0230
     46  H25       38.4580   24.6290   17.1870 H     431  INH431      0.0230
     47  N3        30.9010   30.7590   16.2810 N.am  431  INH431     -0.3031
     48  C15       30.4070   32.0700   16.6610 C.3   431  INH431      0.1133
     49  C16       29.1180   32.0270   17.4520 C.2   431  INH431      0.3727
     50  O5        28.6510   33.0890   17.9240 O.co2 431  INH431     -0.2446
     51  O6        28.4980   30.9540   17.6520 O.co2 431  INH431     -0.2446
     52  H26       31.2590   30.1560   16.9940 H     431  INH431      0.1493
     53  H27       30.2340   32.6550   15.7460 H     431  INH431      0.0579
     54  H28       31.1740   32.5660   17.2740 H     431  INH431      0.0579
@<TRIPOS>BOND
     1     1    10    1
     2     1     9    1
     3     1     8    1
     4     1     2    1
     5     2    11    1
     6     2     5    1
     7     2     3    1
     8     3     7   ar
     9     3     4   ar
    10     5    13    1
    11     5    12    1
    12     5     6    1
    13     6    27    1
    14     6    15    1
    15     6    14    1
    16    16    27   am
    17    16    17    1
    18    16    22    1
    19    17    23    1
    20    17    18    1
    21    17    20    1
    22    18    47   am
    23    18    19    2
    24    20    24    1
    25    20    21    1
    26    20    25    1
    27    21    28    1
    28    26    27    2
    29    28    35    1
    30    28    34    1
    31    28    29    1
    32    29    37    1
    33    29    36    1
    34    29    30    1
    35    30    39    1
    36    30    38    1
    37    30    31    1
    38    31    41    1
    39    31    40    1
    40    31    32    1
    41    32    43    1
    42    32    42    1
    43    32    33    1
    44    33    46    1
    45    33    45    1
    46    33    44    1
    47    47    52    1
    48    47    48    1
    49    48    49    1
    50    48    54    1
    51    48    53    1
    52    49    50   ar
    53    49    51   ar
