@<TRIPOS>MOLECULE
/tmp/ewbell/vina_1ydk_1ydk_lig/vina/vina1.pdbqt
 35 34 0 0 0
SMALL
GASTEIGER

@<TRIPOS>ATOM
      1  C5        33.9870   17.9590    8.4030 C.3   431  INH431      0.1670
      2  N2        34.5460   16.9990    7.4630 N.3   431  INH431     -0.3620
      3  C8        33.8230   15.9890    6.9840 C.3   431  INH431      0.1110
      4  H9        35.4970   17.1000    7.1700 H     431  INH431      0.1620
      5  C4        32.3910   15.8710    7.4650 C.3   431  INH431      0.0860
      6  C3        31.4950   15.2730    6.3810 C.3   431  INH431      0.0520
      7  C1        30.5530   16.3310    5.8080 C.3   431  INH431      0.2800
      8  N1        30.5630   17.5260    6.6310 N.4   431  INH431     -0.0650
      9  H3        31.4600   17.9790    6.5560 H     431  INH431      0.2750
     10  H2        29.8400   18.1560    6.3180 H     431  INH431      0.2750
     11  H1        30.3930   17.2730    7.5930 H     431  INH431      0.2750
     12  C2        29.1540   15.7830    5.7280 C.2   431  INH431      0.1710
     13  O2        28.3080   16.3160    4.9820 O.2   431  INH431     -0.6480
     14  O1        28.8150   14.7880    6.4100 O.3   431  INH431     -0.7750
     15  H         27.9270   14.6970    6.6930 H     431  INH431      0.1670
     16  O4        34.3470   15.0460    6.0900 O.3   431  INH431     -0.3500
     17  H4        34.8820   15.3270    5.3560 H     431  INH431      0.2190
     18  C6        34.3970   19.3460    8.0160 C.3   431  INH431      0.1360
     19  N3        33.4980   20.3120    8.2130 N.3   431  INH431     -0.3630
     20  H26       33.7480   21.2530    7.9870 H     431  INH431      0.1610
     21  C15       32.1710   20.0510    8.7400 C.3   431  INH431      0.2310
     22  C16       31.9110   20.7030   10.0800 C.2   431  INH431      0.1580
     23  O5        32.8070   20.6870   10.9550 O.2   431  INH431     -0.6490
     24  O6        30.8190   21.2620   10.3440 O.3   431  INH431     -0.7750
     25  H         30.1190   21.2430    9.7220 H     431  INH431      0.1670
     26  O3        35.6870   19.5570    7.4940 O.3   431  INH431     -0.3480
     27  H3        36.2030   18.8070    7.2230 H     431  INH431      0.2190
     28  C7        34.5250   17.7120    9.8130 C.3   431  INH431      0.1070
     29  S1        35.9800   16.6490    9.8700 S.3   431  INH431     -0.1670
     30  C9        36.9800   17.9280   10.6720 C.3   431  INH431      0.0740
     31  C10       38.1250   17.3330   11.4850 C.3   431  INH431      0.0100
     32  C11       39.2950   18.3020   11.6080 C.3   431  INH431      0.0010
     33  C12       40.6460   17.6040   11.4510 C.3   431  INH431     -0.0000
     34  C13       41.7510   18.2410   12.2870 C.3   431  INH431     -0.0050
     35  C14       41.2860   18.4390   13.7300 C.3   431  INH431      0.0050
@<TRIPOS>BOND
     1    13    12    2
     2    17    16    1
     3    12     7    1
     4    12    14    1
     5     7     6    1
     6     7     8    1
     7    16     3    1
     8    10     8    1
     9     6     5    1
    10    14    15    1
    11     9     8    1
    12     8    11    1
    13     3     2    1
    14     3     5    1
    15     4     2    1
    16    27    26    1
    17     2     1    1
    18    26    18    1
    19    20    19    1
    20    18    19    1
    21    18     1    1
    22    19    21    1
    23     1    28    1
    24    21    22    1
    25    25    24    1
    26    28    29    1
    27    29    30    1
    28    22    24    1
    29    22    23    2
    30    30    31    1
    31    33    32    1
    32    33    34    1
    33    31    32    1
    34    34    35    1
