@<TRIPOS>MOLECULE
/tmp/ewbell/vina_1ydk_1ydk_lig/vina/vina2.pdbqt
 35 34 0 0 0
SMALL
GASTEIGER

@<TRIPOS>ATOM
      1  C5        33.7130   16.8080    7.8350 C.3   431  INH431      0.1670
      2  N2        33.3720   16.4170    9.1950 N.3   431  INH431     -0.3620
      3  C8        32.3740   16.9970    9.8580 C.3   431  INH431      0.1110
      4  H9        33.9000   15.6950    9.6420 H     431  INH431      0.1620
      5  C4        31.6100   18.0930    9.1420 C.3   431  INH431      0.0860
      6  C3        30.1040   17.9400    9.3530 C.3   431  INH431      0.0520
      7  C1        29.5470   19.1020   10.1730 C.3   431  INH431      0.2800
      8  N1        30.4890   20.2070   10.2010 N.4   431  INH431     -0.0650
      9  H3        30.1880   20.9220    9.5570 H     431  INH431      0.2750
     10  H2        30.5320   20.5890   11.1330 H     431  INH431      0.2750
     11  H1        31.4030   19.8760    9.9320 H     431  INH431      0.2750
     12  C2        29.2600   18.6480   11.5790 C.2   431  INH431      0.1710
     13  O2        28.7850   19.4420   12.4150 O.2   431  INH431     -0.6480
     14  O1        29.4950   17.4690   11.9320 O.3   431  INH431     -0.7750
     15  H         29.6560   17.2750   12.8340 H     431  INH431      0.1670
     16  O4        32.0400   16.6470   11.1730 O.3   431  INH431     -0.3500
     17  H4        32.1300   17.2810   11.8740 H     431  INH431      0.2190
     18  C6        33.8180   15.5910    6.9690 C.3   431  INH431      0.1360
     19  N3        32.8130   15.3730    6.1180 N.3   431  INH431     -0.3630
     20  H26       32.8630   14.5830    5.5080 H     431  INH431      0.1610
     21  C15       31.6500   16.2390    6.0430 C.3   431  INH431      0.2310
     22  C16       30.3380   15.5090    6.2280 C.2   431  INH431      0.1580
     23  O5        29.2720   16.0650    5.8780 O.2   431  INH431     -0.6490
     24  O6        30.2830   14.3580    6.7230 O.3   431  INH431     -0.7750
     25  H         30.5440   13.6150    6.2140 H     431  INH431      0.1670
     26  O3        34.9540   14.7670    7.0810 O.3   431  INH431     -0.3480
     27  H3        35.3190   14.3760    6.2970 H     431  INH431      0.2190
     28  C7        35.0760   17.5010    7.7960 C.3   431  INH431      0.1070
     29  S1        35.0040   19.2810    8.0800 S.3   431  INH431     -0.1670
     30  C9        35.5020   19.1040    9.8120 C.3   431  INH431      0.0740
     31  C10       36.9260   18.5770    9.9470 C.3   431  INH431      0.0100
     32  C11       37.0340   17.5110   11.0310 C.3   431  INH431      0.0010
     33  C12       38.4490   17.4010   11.5980 C.3   431  INH431     -0.0000
     34  C13       39.4310   18.3740   10.9530 C.3   431  INH431     -0.0050
     35  C14       40.8710   17.9790   11.2780 C.3   431  INH431      0.0050
@<TRIPOS>BOND
     1    20    19    1
     2    23    22    2
     3    21    19    1
     4    21    22    1
     5    19    18    1
     6    25    24    1
     7    22    24    1
     8    27    26    1
     9    18    26    1
    10    18     1    1
    11    28     1    1
    12    28    29    1
    13     1     2    1
    14    29    30    1
    15     5     6    1
    16     5     3    1
    17     2     4    1
    18     2     3    1
    19     6     7    1
    20     9     8    1
    21    30    31    1
    22     3    16    1
    23    11     8    1
    24    31    32    1
    25     7     8    1
    26     7    12    1
    27     8    10    1
    28    34    35    1
    29    34    33    1
    30    32    33    1
    31    16    17    1
    32    12    14    1
    33    12    13    2
    34    14    15    1
