@<TRIPOS>MOLECULE
/tmp/ewbell/vina_1ydk_1ydk_lig/vina/vina4.pdbqt
 35 34 0 0 0
SMALL
GASTEIGER

@<TRIPOS>ATOM
      1  C5        32.7890   17.8170    8.7060 C.3   431  INH431      0.1670
      2  N2        33.4330   19.0020    8.1610 N.3   431  INH431     -0.3620
      3  C8        34.7460   19.1940    8.2680 C.3   431  INH431      0.1110
      4  H9        32.8770   19.6890    7.6940 H     431  INH431      0.1620
      5  C4        35.5470   18.1310    8.9920 C.3   431  INH431      0.0860
      6  C3        36.1700   18.6880   10.2710 C.3   431  INH431      0.0520
      7  C1        37.6850   18.4870   10.2710 C.3   431  INH431      0.2800
      8  N1        38.1280   17.9310   11.5370 N.4   431  INH431     -0.0650
      9  H3        37.7130   17.0230   11.6690 H     431  INH431      0.2750
     10  H2        39.1330   17.8450   11.5320 H     431  INH431      0.2750
     11  H1        37.8470   18.5420   12.2880 H     431  INH431      0.2750
     12  C2        38.3770   19.8010   10.0250 C.2   431  INH431      0.1710
     13  O2        39.2600   20.2060   10.8080 O.2   431  INH431     -0.6480
     14  O1        38.0760   20.5080    9.0360 O.3   431  INH431     -0.7750
     15  H         38.7520   20.8660    8.4950 H     431  INH431      0.1670
     16  O4        35.3840   20.3350    7.7630 O.3   431  INH431     -0.3500
     17  H4        34.9110   21.1570    7.6960 H     431  INH431      0.2190
     18  C6        32.0800   17.0760    7.6150 C.3   431  INH431      0.1360
     19  N3        32.4580   15.8140    7.4040 N.3   431  INH431     -0.3630
     20  H26       31.9890   15.2840    6.6980 H     431  INH431      0.1610
     21  C15       33.5250   15.1810    8.1570 C.3   431  INH431      0.2310
     22  C16       34.7620   14.8940    7.3340 C.2   431  INH431      0.1580
     23  O5        35.8680   14.7720    7.9090 O.2   431  INH431     -0.6490
     24  O6        34.7150   14.7730    6.0860 O.3   431  INH431     -0.7750
     25  H         34.7240   13.9210    5.6970 H     431  INH431      0.1670
     26  O3        31.0610   17.7290    6.8960 O.3   431  INH431     -0.3480
     27  H3        30.6630   18.5080    7.2660 H     431  INH431      0.2190
     28  C7        31.7320   18.2030    9.7420 C.3   431  INH431      0.1070
     29  S1        31.3750   19.9700    9.8040 S.3   431  INH431     -0.1670
     30  C9        29.6530   19.6850   10.2860 C.3   431  INH431      0.0740
     31  C10       29.1380   18.3360    9.7980 C.3   431  INH431      0.0100
     32  C11       28.2310   18.4840    8.5810 C.3   431  INH431      0.0010
     33  C12       27.8140   17.1320    8.0010 C.3   431  INH431     -0.0000
     34  C13       27.5210   17.1860    6.5050 C.3   431  INH431     -0.0050
     35  C14       27.2210   15.7880    5.9650 C.3   431  INH431      0.0050
@<TRIPOS>BOND
     1    25    24    1
     2    35    34    1
     3    24    22    1
     4    34    33    1
     5    20    19    1
     6    26    27    1
     7    26    18    1
     8    22    23    2
     9    22    21    1
    10    19    18    1
    11    19    21    1
    12    18     1    1
    13     4     2    1
    14    17    16    1
    15    16     3    1
    16    33    32    1
    17     2     3    1
    18     2     1    1
    19     3     5    1
    20    15    14    1
    21    32    31    1
    22     1    28    1
    23     5     6    1
    24    14    12    1
    25    28    29    1
    26    31    30    1
    27    29    30    1
    28    12     7    1
    29    12    13    2
    30     7     6    1
    31     7     8    1
    32    10     8    1
    33     8     9    1
    34     8    11    1
