@<TRIPOS>MOLECULE
/tmp/ewbell/vina_1ydk_1ydk_lig/vina/vina3.pdbqt
 35 34 0 0 0
SMALL
GASTEIGER

@<TRIPOS>ATOM
      1  C5        32.0010   18.3160    9.3290 C.3   431  INH431      0.1670
      2  N2        30.7100   18.7540    9.8360 N.3   431  INH431     -0.3620
      3  C8        29.5880   18.5670    9.1460 C.3   431  INH431      0.1110
      4  H9        30.6640   19.2080   10.7270 H     431  INH431      0.1620
      5  C4        29.7090   17.8850    7.7970 C.3   431  INH431      0.0860
      6  C3        28.4710   17.0430    7.4940 C.3   431  INH431      0.0520
      7  C1        28.6420   16.2740    6.1840 C.3   431  INH431      0.2800
      8  N1        27.6290   15.2420    6.0600 N.4   431  INH431     -0.0650
      9  H3        27.6270   14.8840    5.1180 H     431  INH431      0.2750
     10  H2        27.8300   14.4940    6.7050 H     431  INH431      0.2750
     11  H1        26.7230   15.6330    6.2730 H     431  INH431      0.2750
     12  C2        30.0100   15.6500    6.1310 C.2   431  INH431      0.1710
     13  O2        30.8900   16.1180    5.3810 O.2   431  INH431     -0.6480
     14  O1        30.2850   14.6500    6.8330 O.3   431  INH431     -0.7750
     15  H         30.8220   14.7470    7.5950 H     431  INH431      0.1670
     16  O4        28.3370   18.9940    9.6100 O.3   431  INH431     -0.3500
     17  H4        27.5600   18.8670    9.0760 H     431  INH431      0.2190
     18  C6        32.3430   16.9750    9.9010 C.3   431  INH431      0.1360
     19  N3        32.9600   16.1170    9.0870 N.3   431  INH431     -0.3630
     20  H26       33.2230   15.2210    9.4440 H     431  INH431      0.1610
     21  C15       33.2610   16.4310    7.7020 C.3   431  INH431      0.2310
     22  C16       33.9890   15.3230    6.9730 C.2   431  INH431      0.1580
     23  O5        34.8330   14.6330    7.5890 O.2   431  INH431     -0.6490
     24  O6        33.7730   15.0720    5.7630 O.3   431  INH431     -0.7750
     25  H         33.1800   14.3860    5.5250 H     431  INH431      0.1670
     26  O3        32.0210   16.7020   11.2430 O.3   431  INH431     -0.3480
     27  H3        31.4850   15.9440   11.4440 H     431  INH431      0.2190
     28  C7        33.1080   19.2800    9.7600 C.3   431  INH431      0.1070
     29  S1        33.9830   20.0560    8.3870 S.3   431  INH431     -0.1670
     30  C9        35.4950   19.1170    8.7170 C.3   431  INH431      0.0740
     31  C10       35.6590   18.7990   10.1990 C.3   431  INH431      0.0100
     32  C11       37.0420   18.2330   10.5060 C.3   431  INH431      0.0010
     33  C12       38.1620   19.2030   10.1280 C.3   431  INH431     -0.0000
     34  C13       39.5240   18.7890   10.6760 C.3   431  INH431     -0.0050
     35  C14       39.3770   17.6270   11.6580 C.3   431  INH431      0.0050
@<TRIPOS>BOND
     1     9     8    1
     2    13    12    2
     3    25    24    1
     4    24    22    1
     5     8     7    1
     6     8    11    1
     7     8    10    1
     8    12     7    1
     9    12    14    1
    10     7     6    1
    11    14    15    1
    12    22    23    2
    13    22    21    1
    14     6     5    1
    15    21    19    1
    16     5     3    1
    17    29    30    1
    18    29    28    1
    19    30    31    1
    20    17    16    1
    21    19    20    1
    22    19    18    1
    23     3    16    1
    24     3     2    1
    25     1    28    1
    26     1     2    1
    27     1    18    1
    28     2     4    1
    29    18    26    1
    30    33    32    1
    31    33    34    1
    32    31    32    1
    33    34    35    1
    34    26    27    1
