@<TRIPOS>MOLECULE
/tmp/ewbell/vina_1ydk_1ydk_lig/vina/vina5.pdbqt
 35 34 0 0 0
SMALL
GASTEIGER

@<TRIPOS>ATOM
      1  C5        41.0490   19.9630   13.4450 C.3   431  INH431      0.1670
      2  N2        41.1550   18.9030   14.4350 N.3   431  INH431     -0.3620
      3  C8        42.1990   18.0770   14.4650 C.3   431  INH431      0.1110
      4  H9        40.4270   18.7910   15.1110 H     431  INH431      0.1620
      5  C4        43.2730   18.2790   13.4140 C.3   431  INH431      0.0860
      6  C3        44.6010   17.6700   13.8620 C.3   431  INH431      0.0520
      7  C1        44.8280   16.3110   13.2010 C.3   431  INH431      0.2800
      8  N1        43.6210   15.8580   12.5330 N.4   431  INH431     -0.0650
      9  H3        43.8610   15.4560   11.6400 H     431  INH431      0.2750
     10  H2        43.1620   15.1650   13.1030 H     431  INH431      0.2750
     11  H1        43.0010   16.6410   12.3930 H     431  INH431      0.2750
     12  C2        45.2440   15.3000   14.2350 C.2   431  INH431      0.1710
     13  O2        44.4710   14.9920   15.1640 O.2   431  INH431     -0.6480
     14  O1        46.3710   14.7560   14.1820 O.3   431  INH431     -0.7750
     15  H         46.6090   14.2450   13.4340 H     431  INH431      0.1670
     16  O4        42.3130   17.0400   15.4000 O.3   431  INH431     -0.3500
     17  H4        41.7560   17.0280   16.1710 H     431  INH431      0.2190
     18  C6        40.8930   21.2850   14.1310 C.3   431  INH431      0.1360
     19  N3        41.3130   22.3600   13.4620 N.3   431  INH431     -0.3630
     20  H26       41.2020   23.2610   13.8820 H     431  INH431      0.1610
     21  C15       41.9260   22.2750   12.1490 C.3   431  INH431      0.2310
     22  C16       42.0680   23.6120   11.4570 C.2   431  INH431      0.1580
     23  O5        41.1890   24.4880   11.6250 O.2   431  INH431     -0.6490
     24  O6        43.0460   23.8750   10.7160 O.3   431  INH431     -0.7750
     25  H         43.1730   23.3960    9.9200 H     431  INH431      0.1670
     26  O3        40.3080   21.3260   15.4110 O.3   431  INH431     -0.3480
     27  H3        39.8280   20.5680   15.7230 H     431  INH431      0.2190
     28  C7        39.8100   19.7660   12.5710 C.3   431  INH431      0.1070
     29  S1        39.8310   18.2490   11.5960 S.3   431  INH431     -0.1670
     30  C9        38.3810   18.7530   10.6350 C.3   431  INH431      0.0740
     31  C10       37.1330   17.9720   11.0300 C.3   431  INH431      0.0100
     32  C11       36.1150   17.9230    9.8960 C.3   431  INH431      0.0010
     33  C12       35.8410   16.4950    9.4240 C.3   431  INH431     -0.0000
     34  C13       35.2820   16.4290    8.0060 C.3   431  INH431     -0.0050
     35  C14       35.5260   15.0490    7.3960 C.3   431  INH431      0.0050
@<TRIPOS>BOND
     1    35    34    1
     2    34    33    1
     3    33    32    1
     4    32    31    1
     5    25    24    1
     6    30    31    1
     7    30    29    1
     8    24    22    1
     9    22    23    2
    10    22    21    1
    11    29    28    1
    12     9     8    1
    13    21    19    1
    14    11     8    1
    15     8    10    1
    16     8     7    1
    17    28     1    1
    18     7     6    1
    19     7    12    1
    20     5     6    1
    21     5     3    1
    22    15    14    1
    23     1    18    1
    24     1     2    1
    25    19    20    1
    26    19    18    1
    27    18    26    1
    28    14    12    1
    29    12    13    2
    30     2     3    1
    31     2     4    1
    32     3    16    1
    33    16    17    1
    34    26    27    1
