@<TRIPOS>MOLECULE
./ligand/2vmd_lig.pdb
 27 27 0 0 0
SMALL
GASTEIGER

@<TRIPOS>ATOM
      1  C1         3.3110   14.6140    7.8260 C.3   766  INH766      0.1876
      2  C2         2.6900   14.4450    9.2290 C.3   766  INH766      0.1341
      3  C3         3.6770   13.7030   10.1200 C.3   766  INH766      0.1141
      4  C4         4.0870   12.3720    9.4750 C.3   766  INH766      0.1119
      5  C5         4.5740   12.6390    8.0420 C.3   766  INH766      0.1130
      6  C6         4.9420   11.3410    7.3350 C.3   766  INH766      0.0730
      7  C7         1.0980   15.3950    7.2860 C.3   766  INH766      0.0395
      8  O1         2.5080   15.4000    6.9170 O.3   766  INH766     -0.3520
      9  O2         2.3660   15.6820    9.8740 O.3   766  INH766     -0.3841
     10  O3         3.1090   13.5360   11.4290 O.3   766  INH766     -0.3864
     11  O4         2.9640   11.4730    9.4590 O.3   766  INH766     -0.3865
     12  O5         3.5610   13.2900    7.2690 O.3   766  INH766     -0.3405
     13  O6         5.6630   11.6480    6.1320 O.3   766  INH766     -0.3924
     14  H1         4.2750   15.1310    7.9450 H     766  INH766      0.0937
     15  H2         1.7690   13.8520    9.1290 H     766  INH766      0.0671
     16  H3         4.5830   14.3190   10.2210 H     766  INH766      0.0648
     17  H4         4.9030   11.9200   10.0580 H     766  INH766      0.0647
     18  H5         5.4620   13.2860    8.0900 H     766  INH766      0.0647
     19  H6         5.5730   10.7280    7.9960 H     766  INH766      0.0584
     20  H7         4.0260   10.7860    7.0840 H     766  INH766      0.0584
     21  H8         0.5290   16.0040    6.5680 H     766  INH766      0.0525
     22  H9         0.9820   15.8150    8.2960 H     766  INH766      0.0525
     23  H10        0.7190   14.3620    7.2720 H     766  INH766      0.0525
     24  H11        1.9900   15.5050   10.7280 H     766  INH766      0.2101
     25  H12        3.7250   13.0730   11.9850 H     766  INH766      0.2100
     26  H13        3.2220   10.6510    9.0590 H     766  INH766      0.2100
     27  H14        5.8950   10.8410    5.6870 H     766  INH766      0.2095
@<TRIPOS>BOND
     1    27    13    1
     2    13     6    1
     3    21     7    1
     4     8     7    1
     5     8     1    1
     6    20     6    1
     7    12     1    1
     8    12     5    1
     9    23     7    1
    10     7    22    1
    11     6    19    1
    12     6     5    1
    13     1    14    1
    14     1     2    1
    15     5    18    1
    16     5     4    1
    17    26    11    1
    18    15     2    1
    19     2     9    1
    20     2     3    1
    21    11     4    1
    22     4    17    1
    23     4     3    1
    24     9    24    1
    25     3    16    1
    26     3    10    1
    27    10    25    1
