@<TRIPOS>MOLECULE
/tmp/ewbell/vina_2vmd_2vmd_lig/vina/vina1.pdbqt
 17 17 0 0 0
SMALL
GASTEIGER

@<TRIPOS>ATOM
      1  C1         3.0160   14.5720    7.5470 C.3   766  INH766      0.2900
      2  C2         2.5020   14.3140    8.9800 C.3   766  INH766      0.2040
      3  C3         3.6330   13.7240    9.8120 C.3   766  INH766      0.1830
      4  C4         4.1990   12.4670    9.1350 C.3   766  INH766      0.1800
      5  C5         4.5640   12.8030    7.6810 C.3   766  INH766      0.1790
      6  O5         3.4270   13.2990    6.9680 O.3   766  INH766     -0.3490
      7  C6         5.0800   11.5730    6.9450 C.3   766  INH766      0.1980
      8  O6         4.0080   10.9970    6.1820 O.3   766  INH766     -0.3980
      9  H14        3.2290   11.5320    6.2770 H     766  INH766      0.2090
     10  O4         3.2200   11.4140    9.1720 O.3   766  INH766     -0.3900
     11  H13        2.7310   11.4070    8.3570 H     766  INH766      0.2100
     12  O3         3.1670   13.4750   11.1470 O.3   766  INH766     -0.3900
     13  H12        2.2430   13.6900   11.2050 H     766  INH766      0.2100
     14  O1         2.0600   15.2320    6.6880 O.3   766  INH766     -0.3630
     15  C7         2.1700   14.7900    5.3040 C.3   766  INH766      0.2040
     16  O2         2.0360   15.4900    9.6510 O.3   766  INH766     -0.3880
     17  H11        1.1020   15.4160    9.8060 H     766  INH766      0.2100
@<TRIPOS>BOND
     1    15    14    1
     2     8     9    1
     3     8     7    1
     4    14     1    1
     5     7     5    1
     6     6     1    1
     7     6     5    1
     8     1     2    1
     9     5     4    1
    10    11    10    1
    11     2    16    1
    12     2     3    1
    13     4    10    1
    14     4     3    1
    15    16    17    1
    16     3    12    1
    17    12    13    1
