@<TRIPOS>MOLECULE
/tmp/ewbell/vina_2vmd_2vmd_lig/vina/vina2.pdbqt
 17 17 0 0 0
SMALL
GASTEIGER

@<TRIPOS>ATOM
      1  C1         1.4380    1.5180    0.4160 C.3   766  INH766      0.2900
      2  C2         1.4180    0.2260    1.2610 C.3   766  INH766      0.2040
      3  C3         0.1460   -0.5500    0.9460 C.3   766  INH766      0.1830
      4  C4        -1.0900    0.3340    1.1610 C.3   766  INH766      0.1800
      5  C5        -0.9120    1.6430    0.3750 C.3   766  INH766      0.1790
      6  O5         0.2790    2.3250    0.7780 O.3   766  INH766     -0.3490
      7  C6        -2.0900    2.5830    0.5990 C.3   766  INH766      0.1980
      8  O6        -1.8860    3.3100    1.8210 O.3   766  INH766     -0.3980
      9  H14       -0.9950    3.1770    2.1240 H     766  INH766      0.2090
     10  O4        -1.2500    0.6130    2.5630 O.3   766  INH766     -0.3900
     11  H13       -1.4800    1.5280    2.6800 H     766  INH766      0.2100
     12  O3         0.1130   -1.7540    1.7290 O.3   766  INH766     -0.3900
     13  H12        0.9530   -2.1940    1.6700 H     766  INH766      0.2100
     14  O1         2.6520    2.2900    0.5500 O.3   766  INH766     -0.3630
     15  C7         2.6210    3.5050   -0.2550 C.3   766  INH766      0.2040
     16  O2         2.5300   -0.6440    1.0200 O.3   766  INH766     -0.3880
     17  H11        2.5950   -1.2770    1.7250 H     766  INH766      0.2100
@<TRIPOS>BOND
     1    15    14    1
     2     5     7    1
     3     5     6    1
     4     5     4    1
     5     1    14    1
     6     1     6    1
     7     1     2    1
     8     7     8    1
     9     3     4    1
    10     3     2    1
    11     3    12    1
    12    16     2    1
    13    16    17    1
    14     4    10    1
    15    13    12    1
    16     8     9    1
    17    10    11    1
