@<TRIPOS>MOLECULE
/tmp/ewbell/vina_2vmd_2vmd_lig/vina/vina4.pdbqt
 17 17 0 0 0
SMALL
GASTEIGER

@<TRIPOS>ATOM
      1  C1         3.8710   11.6530    4.2520 C.3   766  INH766      0.2900
      2  C2         3.6260   10.1520    4.5150 C.3   766  INH766      0.2040
      3  C3         2.8470    9.5660    3.3450 C.3   766  INH766      0.1830
      4  C4         1.5540   10.3590    3.1100 C.3   766  INH766      0.1800
      5  C5         1.8970   11.8520    2.9840 C.3   766  INH766      0.1790
      6  O5         2.5790   12.3220    4.1510 O.3   766  INH766     -0.3490
      7  C6         0.6400   12.6930    2.8050 C.3   766  INH766      0.1980
      8  O6        -0.0690   12.7510    4.0530 O.3   766  INH766     -0.3980
      9  H14       -0.9680   12.4750    3.9180 H     766  INH766      0.2090
     10  O4         0.6480   10.1490    4.2080 O.3   766  INH766     -0.3900
     11  H13        0.2270   10.9700    4.4330 H     766  INH766      0.2100
     12  O3         2.6090    8.1690    3.5790 O.3   766  INH766     -0.3900
     13  H12        3.2240    7.8470    4.2280 H     766  INH766      0.2100
     14  O1         4.6960   12.2980    5.2480 O.3   766  INH766     -0.3630
     15  C7         4.0680   13.4980    5.7880 C.3   766  INH766      0.2040
     16  O2         4.8250    9.3850    4.6670 O.3   766  INH766     -0.3880
     17  H11        5.5360    9.9570    4.9320 H     766  INH766      0.2100
@<TRIPOS>BOND
     1     7     5    1
     2     7     8    1
     3     5     4    1
     4     5     6    1
     5     4     3    1
     6     4    10    1
     7     3    12    1
     8     3     2    1
     9    12    13    1
    10     9     8    1
    11     6     1    1
    12    10    11    1
    13     1     2    1
    14     1    14    1
    15     2    16    1
    16    16    17    1
    17    14    15    1
