@<TRIPOS>MOLECULE
/tmp/ewbell/vina_2vmd_2vmd_lig/vina/vina3.pdbqt
 17 17 0 0 0
SMALL
GASTEIGER

@<TRIPOS>ATOM
      1  C1        -1.6860    2.5210    1.0620 C.3   766  INH766      0.2900
      2  C2        -0.7640    2.9400   -0.1030 C.3   766  INH766      0.2040
      3  C3        -0.2020    1.6880   -0.7630 C.3   766  INH766      0.1830
      4  C4         0.5000    0.8030    0.2750 C.3   766  INH766      0.1800
      5  C5        -0.4620    0.5470    1.4470 C.3   766  INH766      0.1790
      6  O5        -0.8930    1.7790    2.0340 O.3   766  INH766     -0.3490
      7  C6         0.2060   -0.2830    2.5350 C.3   766  INH766      0.1980
      8  O6         0.1560    0.4390    3.7760 O.3   766  INH766     -0.3980
      9  H14       -0.7390    0.4630    4.0920 H     766  INH766      0.2090
     10  O4         1.6930    1.4550    0.7440 O.3   766  INH766     -0.3900
     11  H13        2.4170    1.2460    0.1660 H     766  INH766      0.2100
     12  O3         0.6610    2.0650   -1.8480 O.3   766  INH766     -0.3900
     13  H12        0.3020    2.8270   -2.2890 H     766  INH766      0.2100
     14  O1        -2.3650    3.6240    1.7020 O.3   766  INH766     -0.3630
     15  C7        -3.7710    3.6970    1.3230 C.3   766  INH766      0.2040
     16  O2        -1.4220    3.7090   -1.1170 O.3   766  INH766     -0.3880
     17  H11       -1.0020    3.5540   -1.9550 H     766  INH766      0.2100
@<TRIPOS>BOND
     1    13    12    1
     2    17    16    1
     3    12     3    1
     4    16     2    1
     5     3     2    1
     6     3     4    1
     7     2     1    1
     8    11    10    1
     9     4    10    1
    10     4     5    1
    11     1    14    1
    12     1     6    1
    13    15    14    1
    14     5     6    1
    15     5     7    1
    16     7     8    1
    17     8     9    1
