@<TRIPOS>MOLECULE
/tmp/ewbell/vina_2vmd_2vmd_lig/vina/vina5.pdbqt
 17 17 0 0 0
SMALL
GASTEIGER

@<TRIPOS>ATOM
      1  C1         2.8000   15.2600   21.0840 C.3   766  INH766      0.2900
      2  C2         2.8040   13.9340   21.8740 C.3   766  INH766      0.2040
      3  C3         4.1990   13.6990   22.4380 C.3   766  INH766      0.1830
      4  C4         5.2460   13.7390   21.3160 C.3   766  INH766      0.1800
      5  C5         5.0750   15.0410   20.5170 C.3   766  INH766      0.1790
      6  O5         3.7510   15.1460   19.9840 O.3   766  INH766     -0.3490
      7  C6         6.0550   15.1060   19.3540 C.3   766  INH766      0.1980
      8  O6         5.4110   14.6190   18.1670 O.3   766  INH766     -0.3980
      9  H14        5.2350   13.6900   18.2610 H     766  INH766      0.2090
     10  O4         5.0770   12.6010   20.4520 O.3   766  INH766     -0.3900
     11  H13        4.8760   11.8340   20.9750 H     766  INH766      0.2100
     12  O3         4.2170   12.4650   23.1730 O.3   766  INH766     -0.3900
     13  H12        4.9590   11.9410   22.8930 H     766  INH766      0.2100
     14  O1         1.4990   15.6460   20.5870 O.3   766  INH766     -0.3630
     15  C7         1.3460   15.3570   19.1660 C.3   766  INH766      0.2040
     16  O2         1.8820   13.9070   22.9690 O.3   766  INH766     -0.3880
     17  H11        2.3600   13.8100   23.7840 H     766  INH766      0.2100
@<TRIPOS>BOND
     1     8     9    1
     2     8     7    1
     3    15    14    1
     4     7     5    1
     5     6     5    1
     6     6     1    1
     7    10    11    1
     8    10     4    1
     9     5     4    1
    10    14     1    1
    11     1     2    1
    12     4     3    1
    13     2     3    1
    14     2    16    1
    15     3    12    1
    16    13    12    1
    17    16    17    1
