@<TRIPOS>MOLECULE
./ligand/3brn_lig.pdb
 26 27 0 0 0
SMALL
GASTEIGER

@<TRIPOS>ATOM
      1  O1        -8.1260   31.7850  -10.8480 O.3   156  INH156     -0.5067
      2  C1        -8.0610   33.1320  -10.5860 C.ar  156  INH156      0.1176
      3  C2        -7.0470   33.5720   -9.7390 C.ar  156  INH156     -0.0182
      4  C3        -6.8510   34.9390   -9.5270 C.ar  156  INH156     -0.0343
      5  C4        -7.7470   35.8060  -10.1340 C.ar  156  INH156      0.0470
      6  N1        -7.9200   37.1520  -10.1210 N.ar  156  INH156     -0.3604
      7  C5        -8.9580   37.4780  -10.9270 C.ar  156  INH156      0.0061
      8  C6        -9.4980   36.3040  -11.4540 C.ar  156  INH156     -0.0172
      9  C7        -8.7390   35.2600  -10.9310 C.ar  156  INH156      0.0065
     10  C8        -8.8800   33.9750  -11.1400 C.ar  156  INH156     -0.0108
     11  C9       -10.6950   36.2090  -12.3680 C.3   156  INH156      0.0145
     12  C10      -11.8650   35.5100  -11.6480 C.3   156  INH156     -0.0313
     13  N2       -12.9430   35.2870  -12.6170 N.4   156  INH156      0.2188
     14  H1        -7.4510   31.3330  -10.3540 H     156  INH156      0.2921
     15  H2        -6.4070   32.8510   -9.2420 H     156  INH156      0.0655
     16  H3        -6.0350   35.3060   -8.9150 H     156  INH156      0.0639
     17  H4        -7.3510   37.8210   -9.5830 H     156  INH156      0.1653
     18  H5        -9.3120   38.4880  -11.1300 H     156  INH156      0.0810
     19  H6        -9.6810   33.6140  -11.7760 H     156  INH156      0.0661
     20  H7       -11.0050   37.2220  -12.6660 H     156  INH156      0.0366
     21  H8       -10.4230   35.6310  -13.2630 H     156  INH156      0.0366
     22  H9       -11.5270   34.5460  -11.2410 H     156  INH156      0.0816
     23  H10      -12.2290   36.1460  -10.8280 H     156  INH156      0.0816
     24  H11      -13.7160   34.8300  -12.1600 H     156  INH156      0.1994
     25  H12      -12.6050   34.7050  -13.3680 H     156  INH156      0.1994
     26  H13      -13.2490   36.1720  -12.9890 H     156  INH156      0.1994
@<TRIPOS>BOND
     1     1    14    1
     2     1     2    1
     3     2    10   ar
     4     2     3   ar
     5     3    15    1
     6     3     4   ar
     7     4    16    1
     8     4     5   ar
     9     5     9   ar
    10     5     6   ar
    11     6    17    1
    12     6     7   ar
    13     7    18    1
    14     7     8   ar
    15     8    11    1
    16     8     9   ar
    17     9    10   ar
    18    10    19    1
    19    11    21    1
    20    11    20    1
    21    11    12    1
    22    12    23    1
    23    12    22    1
    24    12    13    1
    25    13    26    1
    26    13    25    1
    27    13    24    1
