@<TRIPOS>MOLECULE
/tmp/ewbell/vina_3brn_3brn_lig/vina/vina4.pdbqt
 18 19 0 0 0
SMALL
GASTEIGER

@<TRIPOS>ATOM
      1  C1        -7.3300   35.9460   -9.4970 C.ar  156  INH156      0.0660
      2  C2        -6.3130   35.0050   -9.6310 C.ar  156  INH156      0.0390
      3  C3        -6.5740   33.7660  -10.2210 C.ar  156  INH156      0.0330
      4  C4        -7.8530   33.5620  -10.7190 C.ar  156  INH156      0.0430
      5  N1        -8.4570   32.5500  -11.3910 N.ar  156  INH156     -0.3650
      6  C5        -9.7530   32.8730  -11.6170 C.ar  156  INH156      0.0960
      7  C6        -9.9880   34.1500  -11.1040 C.ar  156  INH156     -0.0290
      8  C7        -8.7800   34.5780  -10.5610 C.ar  156  INH156      0.0010
      9  C8        -8.5170   35.7180   -9.9730 C.ar  156  INH156      0.0500
     10  H4        -8.0030   31.6730  -11.6840 H     156  INH156      0.1650
     11  C9       -11.2890   34.9110  -11.1800 C.3   156  INH156      0.0680
     12  C10      -11.5800   35.3320  -12.6340 C.3   156  INH156      0.2340
     13  N2       -11.0210   36.6710  -12.8520 N.4   156  INH156     -0.0790
     14  H13      -11.4680   37.0960  -13.6490 H     156  INH156      0.2740
     15  H12      -11.1800   37.2380  -12.0340 H     156  INH156      0.2740
     16  H11      -10.0310   36.5970  -13.0220 H     156  INH156      0.2740
     17  O1        -7.0410   37.0950   -8.8010 O.3   156  INH156     -0.3610
     18  H1        -6.8550   36.8780   -7.8940 H     156  INH156      0.2170
@<TRIPOS>BOND
     1    14    13    1
     2    16    13    1
     3    13    12    1
     4    13    15    1
     5    12    11    1
     6    10     5    1
     7     6     5   ar
     8     6     7   ar
     9     5     4   ar
    10    11     7    1
    11     7     8   ar
    12     4     8   ar
    13     4     3   ar
    14     8     9   ar
    15     3     2   ar
    16     9     1   ar
    17     2     1   ar
    18     1    17    1
    19    17    18    1
