@<TRIPOS>MOLECULE
/tmp/ewbell/vina_3brn_3brn_lig/vina/vina2.pdbqt
 18 19 0 0 0
SMALL
GASTEIGER

@<TRIPOS>ATOM
      1  C1       -11.2380   35.4190  -12.2130 C.ar  156  INH156      0.0660
      2  C2       -10.6530   36.6820  -12.1980 C.ar  156  INH156      0.0390
      3  C3        -9.3660   36.8550  -11.6810 C.ar  156  INH156      0.0330
      4  C4        -8.6960   35.7150  -11.2640 C.ar  156  INH156      0.0430
      5  N1        -7.4530   35.4720  -10.7770 N.ar  156  INH156     -0.3650
      6  C5        -7.3290   34.1510  -10.5050 C.ar  156  INH156      0.0960
      7  C6        -8.5170   33.5110  -10.8590 C.ar  156  INH156     -0.0290
      8  C7        -9.3600   34.5030  -11.3530 C.ar  156  INH156      0.0010
      9  C8       -10.5800   34.3730  -11.8110 C.ar  156  INH156      0.0500
     10  H4        -6.7190   36.1810  -10.6350 H     156  INH156      0.1650
     11  C9        -8.7910   32.0300  -10.7600 C.3   156  INH156      0.0680
     12  C10       -8.4370   31.3300  -12.0870 C.3   156  INH156      0.2340
     13  N2        -9.6500   31.2470  -12.9090 N.4   156  INH156     -0.0790
     14  H13      -10.0810   30.3460  -12.7820 H     156  INH156      0.2740
     15  H12      -10.2930   31.9720  -12.6310 H     156  INH156      0.2740
     16  H11       -9.4060   31.3690  -13.8790 H     156  INH156      0.2740
     17  O1       -12.5470   35.3330  -12.6210 O.3   156  INH156     -0.3610
     18  H1       -12.6390   34.6220  -13.2460 H     156  INH156      0.2170
@<TRIPOS>BOND
     1    16    13    1
     2    18    17    1
     3    13    14    1
     4    13    15    1
     5    13    12    1
     6    17     1    1
     7     1     2   ar
     8     1     9   ar
     9     2     3   ar
    10    12    11    1
    11     9     8   ar
    12     3     4   ar
    13     8     4   ar
    14     8     7   ar
    15     4     5   ar
    16     7    11    1
    17     7     6   ar
    18     5    10    1
    19     5     6   ar
