@<TRIPOS>MOLECULE
/tmp/ewbell/vina_3brn_3brn_lig/vina/vina1.pdbqt
 18 19 0 0 0
SMALL
GASTEIGER

@<TRIPOS>ATOM
      1  C1       -11.4580   34.6750  -11.7130 C.ar  156  INH156      0.0660
      2  C2       -11.9680   34.0960  -12.8730 C.ar  156  INH156      0.0390
      3  C3       -11.3220   33.0030  -13.4560 C.ar  156  INH156      0.0330
      4  C4       -10.2160   32.4960  -12.7910 C.ar  156  INH156      0.0430
      5  N1        -9.3860   31.4430  -13.0000 N.ar  156  INH156     -0.3650
      6  C5        -8.4380   31.4210  -12.0340 C.ar  156  INH156      0.0960
      7  C6        -8.6800   32.4730  -11.1490 C.ar  156  INH156     -0.0290
      8  C7        -9.8130   33.1280  -11.6270 C.ar  156  INH156      0.0010
      9  C8       -10.4170   34.1730  -11.1190 C.ar  156  INH156      0.0500
     10  H4        -9.4630   30.7670  -13.7730 H     156  INH156      0.1650
     11  C9        -7.8870   32.7890   -9.9050 C.3   156  INH156      0.0680
     12  C10       -6.7910   33.8270  -10.2170 C.3   156  INH156      0.2340
     13  N2        -7.1390   35.0870   -9.5500 N.4   156  INH156     -0.0790
     14  H13       -7.9010   35.5270  -10.0400 H     156  INH156      0.2740
     15  H12       -7.4140   34.8980   -8.5990 H     156  INH156      0.2740
     16  H11       -6.3400   35.7000   -9.5530 H     156  INH156      0.2740
     17  O1       -12.0670   35.8180  -11.2560 O.3   156  INH156     -0.3610
     18  H1       -11.4170   36.5030  -11.1500 H     156  INH156      0.2170
@<TRIPOS>BOND
     1    10     5    1
     2     3     2   ar
     3     3     4   ar
     4     5     4   ar
     5     5     6   ar
     6     2     1   ar
     7     4     8   ar
     8     6     7   ar
     9     1    17    1
    10     1     9   ar
    11     8     7   ar
    12     8     9   ar
    13    17    18    1
    14     7    11    1
    15    12    11    1
    16    12    13    1
    17    14    13    1
    18    16    13    1
    19    13    15    1
