@<TRIPOS>MOLECULE
/tmp/ewbell/vina_3brn_3brn_lig/vina/vina3.pdbqt
 18 19 0 0 0
SMALL
GASTEIGER

@<TRIPOS>ATOM
      1  C1        -8.8800   31.8030  -11.8120 C.ar  156  INH156      0.0660
      2  C2        -8.0750   31.6500  -10.6860 C.ar  156  INH156      0.0390
      3  C3        -7.7790   32.7510   -9.8780 C.ar  156  INH156      0.0330
      4  C4        -8.3770   33.9570  -10.2120 C.ar  156  INH156      0.0430
      5  N1        -8.3860   35.1950   -9.6570 N.ar  156  INH156     -0.3650
      6  C5        -9.1340   36.0240  -10.4250 C.ar  156  INH156      0.0960
      7  C6        -9.6550   35.2920  -11.4930 C.ar  156  INH156     -0.0290
      8  C7        -9.1870   33.9900  -11.3350 C.ar  156  INH156      0.0010
      9  C8        -9.4210   32.9500  -12.0950 C.ar  156  INH156      0.0500
     10  H4        -7.9010   35.4640   -8.7900 H     156  INH156      0.1650
     11  C9       -10.5760   35.8200  -12.5650 C.3   156  INH156      0.0680
     12  C10      -11.9300   35.0840  -12.5160 C.3   156  INH156      0.2340
     13  N2       -12.6160   35.4490  -11.2710 N.4   156  INH156     -0.0790
     14  H13      -13.3940   34.8270  -11.1220 H     156  INH156      0.2740
     15  H12      -11.9710   35.3740  -10.5000 H     156  INH156      0.2740
     16  H11      -12.9500   36.3970  -11.3380 H     156  INH156      0.2740
     17  O1        -9.0340   30.7110  -12.6310 O.3   156  INH156     -0.3610
     18  H1        -8.1820   30.4180  -12.9340 H     156  INH156      0.2170
@<TRIPOS>BOND
     1    18    17    1
     2    17     1    1
     3    11    12    1
     4    11     7    1
     5    12    13    1
     6     9     1   ar
     7     9     8   ar
     8     1     2   ar
     9     7     8   ar
    10     7     6   ar
    11    16    13    1
    12     8     4   ar
    13    13    14    1
    14    13    15    1
    15     2     3   ar
    16     6     5   ar
    17     4     3   ar
    18     4     5   ar
    19     5    10    1
