@<TRIPOS>MOLECULE
/tmp/ewbell/vina_3brn_3brn_lig/vina/vina5.pdbqt
 18 19 0 0 0
SMALL
GASTEIGER

@<TRIPOS>ATOM
      1  C1        -8.1040   36.8570   -9.9880 C.ar  156  INH156      0.0660
      2  C2        -6.9140   36.5960   -9.3130 C.ar  156  INH156      0.0390
      3  C3        -6.4660   35.2810   -9.1610 C.ar  156  INH156      0.0330
      4  C4        -7.2160   34.2850   -9.7680 C.ar  156  INH156      0.0430
      5  N1        -7.0800   32.9410   -9.8950 N.ar  156  INH156     -0.3650
      6  C5        -8.1360   32.4470  -10.5830 C.ar  156  INH156      0.0960
      7  C6        -8.9680   33.5080  -10.9440 C.ar  156  INH156     -0.0290
      8  C7        -8.3660   34.6590  -10.4420 C.ar  156  INH156      0.0010
      9  C8        -8.7820   35.8970  -10.5410 C.ar  156  INH156      0.0500
     10  H4        -6.2970   32.3840   -9.5250 H     156  INH156      0.1650
     11  C9       -10.2350   33.4060  -11.7580 C.3   156  INH156      0.0680
     12  C10      -10.1230   32.2600  -12.7820 C.3   156  INH156      0.2340
     13  N2       -11.1810   32.4270  -13.7860 N.4   156  INH156     -0.0790
     14  H13      -10.7860   32.3350  -14.7080 H     156  INH156      0.2740
     15  H12      -11.8870   31.7210  -13.6490 H     156  INH156      0.2740
     16  H11      -11.5950   33.3400  -13.6870 H     156  INH156      0.2740
     17  O1        -8.5520   38.1560   -9.9990 O.3   156  INH156     -0.3610
     18  H1        -9.1970   38.2630  -10.6900 H     156  INH156      0.2170
@<TRIPOS>BOND
     1    14    13    1
     2    13    16    1
     3    13    15    1
     4    13    12    1
     5    12    11    1
     6    11     7    1
     7     7     6   ar
     8     7     8   ar
     9    18    17    1
    10     6     5   ar
    11     9     8   ar
    12     9     1   ar
    13     8     4   ar
    14    17     1    1
    15     1     2   ar
    16     5     4   ar
    17     5    10    1
    18     4     3   ar
    19     2     3   ar
