@<TRIPOS>MOLECULE
./ligand/2vpn_lig.pdb
 20 20 0 0 0
SMALL
GASTEIGER

@<TRIPOS>ATOM
      1  O1        43.8610   31.4390   35.0790 O.co2 311  INH311     -0.2446
      2  C1        43.5350   31.1580   33.9000 C.2   311  INH311      0.3727
      3  O2        43.4610   29.9940   33.4780 O.co2 311  INH311     -0.2446
      4  C2        43.2840   32.2710   32.9390 C.3   311  INH311      0.1127
      5  C3        42.3870   33.3630   33.5100 C.3   311  INH311     -0.0143
      6  C4        42.1870   34.4380   32.4490 C.3   311  INH311     -0.0005
      7  N1        41.8370   33.8640   31.1570 N.3   311  INH311     -0.2963
      8  C5        42.0700   32.6140   30.8420 C.3   311  INH311      0.1000
      9  C6        41.5400   32.1210   29.5190 C.3   311  INH311     -0.0303
     10  N2        42.7150   31.8090   31.6740 N.3   311  INH311     -0.2839
     11  H1        44.2610   32.7260   32.7180 H     311  INH311      0.0578
     12  H2        42.8620   33.8040   34.3990 H     311  INH311      0.0298
     13  H3        41.4140   32.9340   33.7890 H     311  INH311      0.0298
     14  H4        43.1200   35.0110   32.3430 H     311  INH311      0.0425
     15  H5        41.3780   35.1100   32.7710 H     311  INH311      0.0425
     16  H6        41.3850   34.4700   30.4580 H     311  INH311      0.1237
     17  H7        41.8080   31.0620   29.3880 H     311  INH311      0.0261
     18  H8        41.9800   32.7140   28.7040 H     311  INH311      0.0261
     19  H9        40.4450   32.2270   29.5000 H     311  INH311      0.0261
     20  H10       42.8200   30.8170   31.4190 H     311  INH311      0.1245
@<TRIPOS>BOND
     1     1     2   ar
     2     2     4    1
     3     2     3   ar
     4     4    11    1
     5     4     5    1
     6     4    10    1
     7     5     6    1
     8     5    13    1
     9     5    12    1
    10     6     7    1
    11     6    15    1
    12     6    14    1
    13     7     8    1
    14     7    16    1
    15     8    10    1
    16     8     9    1
    17     9    19    1
    18     9    18    1
    19     9    17    1
    20    10    20    1
