@<TRIPOS>MOLECULE
/tmp/ewbell/vina_2vpn_2vpn_lig/vina/vina5.pdbqt
 13 13 0 0 0
SMALL
GASTEIGER

@<TRIPOS>ATOM
      1  C2        45.4240   41.2460   38.6750 C.3   311  INH311      0.2710
      2  C3        46.7340   40.4880   38.8530 C.3   311  INH311      0.0620
      3  C4        46.5050   39.3340   39.8220 C.3   311  INH311      0.1180
      4  N1        45.3090   38.5740   39.4850 N.3   311  INH311     -0.3940
      5  C5        44.3480   39.0490   38.7330 C.3   311  INH311      0.6320
      6  C6        43.2290   38.1080   38.3610 C.3   311  INH311      0.0650
      7  N2        44.3810   40.2970   38.2890 N.3   311  INH311     -0.0850
      8  H6        45.2160   37.6190   39.8570 H     311  INH311      0.1550
      9  H10       43.6400   40.6120   37.6470 H     311  INH311      0.2630
     10  C1        45.5370   42.3950   37.7310 C.2   311  INH311      0.1700
     11  O1        46.2760   43.3610   38.0400 O.2   311  INH311     -0.6490
     12  O2        44.8520   42.3720   36.6970 O.3   311  INH311     -0.7750
     13  H         43.9790   42.0320   36.7220 H     311  INH311      0.1670
@<TRIPOS>BOND
     1    12    13    1
     2    12    10    1
     3     9     7    1
     4    10    11    2
     5    10     1    1
     6     7     1    1
     7     7     5    1
     8     6     5    1
     9     1     2    1
    10     5     4    1
    11     2     3    1
    12     4     3    1
    13     4     8    1
