@<TRIPOS>MOLECULE
/tmp/ewbell/vina_2vpn_2vpn_lig/vina/vina3.pdbqt
 13 13 0 0 0
SMALL
GASTEIGER

@<TRIPOS>ATOM
      1  C2        43.1380   33.4150   34.1440 C.3   311  INH311      0.2710
      2  C3        43.9700   32.1470   34.3000 C.3   311  INH311      0.0620
      3  C4        43.2020   30.9790   33.6940 C.3   311  INH311      0.1180
      4  N1        42.6790   31.3030   32.3740 N.3   311  INH311     -0.3940
      5  C5        42.5230   32.5310   31.9470 C.3   311  INH311      0.6320
      6  C6        42.0930   32.7190   30.5130 C.3   311  INH311      0.0650
      7  N2        42.7700   33.5660   32.7380 N.3   311  INH311     -0.0850
      8  H6        42.4200   30.5290   31.7460 H     311  INH311      0.1550
      9  H10       42.6990   34.5150   32.3450 H     311  INH311      0.2630
     10  C1        43.8090   34.6270   34.6990 C.2   311  INH311      0.1700
     11  O1        43.4180   35.0830   35.8010 O.2   311  INH311     -0.6490
     12  O2        44.6950   35.1660   34.0190 O.3   311  INH311     -0.7750
     13  H         45.2520   34.6440   33.4770 H     311  INH311      0.1670
@<TRIPOS>BOND
     1     6     5    1
     2     8     4    1
     3     5     4    1
     4     5     7    1
     5     9     7    1
     6     4     3    1
     7     7     1    1
     8    13    12    1
     9     3     2    1
    10    12    10    1
    11     1     2    1
    12     1    10    1
    13    10    11    2
