@<TRIPOS>MOLECULE
/tmp/ewbell/vina_2vpn_2vpn_lig/vina/vina4.pdbqt
 13 13 0 0 0
SMALL
GASTEIGER

@<TRIPOS>ATOM
      1  C2        42.9080   33.5820   32.7530 C.3   311  INH311      0.2710
      2  C3        42.6560   32.2220   33.3930 C.3   311  INH311      0.0620
      3  C4        43.7830   31.9240   34.3730 C.3   311  INH311      0.1180
      4  N1        44.0540   33.0570   35.2470 N.3   311  INH311     -0.3940
      5  C5        43.6860   34.2830   34.9650 C.3   311  INH311      0.6320
      6  C6        43.9180   35.3370   36.0180 C.3   311  INH311      0.0650
      7  N2        43.1000   34.5720   33.8120 N.3   311  INH311     -0.0850
      8  H6        44.5580   32.8870   36.1280 H     311  INH311      0.1550
      9  H10       42.7660   35.5330   33.6550 H     311  INH311      0.2630
     10  C1        41.8490   33.9760   31.7790 C.2   311  INH311      0.1700
     11  O1        40.9090   34.7090   32.1720 O.2   311  INH311     -0.6490
     12  O2        41.9150   33.5190   30.6280 O.3   311  INH311     -0.7750
     13  H         42.1470   32.6220   30.4930 H     311  INH311      0.1670
@<TRIPOS>BOND
     1    13    12    1
     2    12    10    1
     3    10    11    2
     4    10     1    1
     5     1     2    1
     6     1     7    1
     7     2     3    1
     8     9     7    1
     9     7     5    1
    10     3     4    1
    11     5     4    1
    12     5     6    1
    13     4     8    1
