@<TRIPOS>MOLECULE
/tmp/ewbell/vina_2vpn_2vpn_lig/vina/vina1.pdbqt
 13 13 0 0 0
SMALL
GASTEIGER

@<TRIPOS>ATOM
      1  C2        43.2740   32.1230   32.8330 C.3   311  INH311      0.2710
      2  C3        42.5580   33.3350   33.4160 C.3   311  INH311      0.0620
      3  C4        42.5190   34.4350   32.3630 C.3   311  INH311      0.1180
      4  N1        42.0780   33.9300   31.0700 N.3   311  INH311     -0.3940
      5  C5        42.1150   32.6610   30.7460 C.3   311  INH311      0.6320
      6  C6        41.5080   32.2630   29.4240 C.3   311  INH311      0.0650
      7  N2        42.6340   31.7610   31.5700 N.3   311  INH311     -0.0850
      8  H6        41.7200   34.6020   30.3770 H     311  INH311      0.1550
      9  H10       42.5850   30.7670   31.3080 H     311  INH311      0.2630
     10  C1        43.3580   30.9780   33.7860 C.2   311  INH311      0.1700
     11  O1        43.7780   31.1900   34.9500 O.2   311  INH311     -0.6490
     12  O2        43.0560   29.8490   33.3710 O.3   311  INH311     -0.7750
     13  H         43.6600   29.1390   33.4650 H     311  INH311      0.1670
@<TRIPOS>BOND
     1     6     5    1
     2     8     4    1
     3     5     4    1
     4     5     7    1
     5     4     3    1
     6     9     7    1
     7     7     1    1
     8     3     2    1
     9     1     2    1
    10     1    10    1
    11    12    13    1
    12    12    10    1
    13    10    11    2
