@<TRIPOS>MOLECULE
/tmp/ewbell/vina_2vpn_2vpn_lig/vina/vina2.pdbqt
 13 13 0 0 0
SMALL
GASTEIGER

@<TRIPOS>ATOM
      1  C2        42.6830   32.1890   33.3420 C.3   311  INH311      0.2710
      2  C3        42.5270   33.0050   32.0640 C.3   311  INH311      0.0620
      3  C4        41.8360   34.3200   32.4030 C.3   311  INH311      0.1180
      4  N1        42.4380   34.9630   33.5630 N.3   311  INH311     -0.3940
      5  C5        43.1740   34.3220   34.4360 C.3   311  INH311      0.6320
      6  C6        43.8380   35.1380   35.5170 C.3   311  INH311      0.0650
      7  N2        43.3540   33.0120   34.3470 N.3   311  INH311     -0.0850
      8  H6        42.2760   35.9700   33.7030 H     311  INH311      0.1550
      9  H10       43.9930   32.5550   35.0130 H     311  INH311      0.2630
     10  C1        43.3630   30.8790   33.1210 C.2   311  INH311      0.1700
     11  O1        44.4970   30.8700   32.5840 O.2   311  INH311     -0.6490
     12  O2        42.7530   29.8450   33.4320 O.3   311  INH311     -0.7750
     13  H         41.8250   29.8690   33.5620 H     311  INH311      0.1670
@<TRIPOS>BOND
     1     2     3    1
     2     2     1    1
     3     3     4    1
     4    11    10    2
     5    10     1    1
     6    10    12    1
     7     1     7    1
     8    12    13    1
     9     4     8    1
    10     4     5    1
    11     7     5    1
    12     7     9    1
    13     5     6    1
