@<TRIPOS>MOLECULE
./ligand/2qnq_lig.pdb
 71 75 0 0 0
SMALL
GASTEIGER

@<TRIPOS>ATOM
      1  C1       -14.7370   23.2240   -1.7640 C.ar  203  INH203     -0.0598
      2  C2       -13.6490   23.6870   -2.5430 C.ar  203  INH203     -0.0603
      3  C3       -13.7490   23.6880   -3.9560 C.ar  203  INH203     -0.0415
      4  C4       -14.9340   23.2330   -4.6060 C.ar  203  INH203      0.0673
      5  C5       -16.0490   22.7610   -3.8340 C.ar  203  INH203      0.1237
      6  S1       -17.6440   22.1560   -4.4740 S.O2  203  INH203      0.0630
      7  N1       -17.3770   20.4350   -4.1040 N.3   203  INH203     -0.1623
      8  C6       -16.4990   19.6960   -5.0680 C.3   203  INH203      0.0939
      9  C7       -17.1200   18.3860   -5.6960 C.3   203  INH203      0.0939
     10  N2       -17.0730   18.3830   -7.1910 N.3   203  INH203     -0.1623
     11  S2       -18.5450   18.7020   -8.0640 S.O2  203  INH203      0.0630
     12  O1       -19.0970   19.9320   -7.5320 O.2   203  INH203     -0.1528
     13  O2       -18.2240   18.6930   -9.4900 O.2   203  INH203     -0.1528
     14  C8       -19.7460   17.3730   -7.8620 C.ar  203  INH203      0.1237
     15  C9       -20.9680   17.6690   -7.1920 C.ar  203  INH203     -0.0339
     16  C10      -21.9690   16.6720   -7.0090 C.ar  203  INH203     -0.0598
     17  C11      -21.7560   15.3520   -7.5020 C.ar  203  INH203     -0.0603
     18  C12      -20.5420   15.0360   -8.1760 C.ar  203  INH203     -0.0415
     19  C13      -19.5360   16.0350   -8.3600 C.ar  203  INH203      0.0673
     20 Cl1       -18.0790   15.5790   -9.2030 Cl    203  INH203     -0.0815
     21  C14      -15.8450   18.0910   -7.9740 C.3   203  INH203      0.0461
     22  C15      -14.9580   19.3250   -8.2840 C.ar  203  INH203     -0.0317
     23  C16      -15.4980   20.4470   -8.9850 C.ar  203  INH203     -0.0573
     24  C17      -14.6860   21.5770   -9.2820 C.ar  203  INH203     -0.0615
     25  C18      -13.3200   21.6000   -8.8780 C.ar  203  INH203     -0.0617
     26  C19      -12.7710   20.4890   -8.1770 C.ar  203  INH203     -0.0615
     27  C20      -13.5860   19.3620   -7.8840 C.ar  203  INH203     -0.0573
     28  C21      -16.3310   17.2600   -4.9760 C.3   203  INH203     -0.0142
     29  N3       -14.9820   17.8160   -4.7060 N.4   203  INH203      0.2294
     30  C22      -15.1360   19.2670   -4.4520 C.3   203  INH203     -0.0142
     31  C23      -18.0090   19.8160   -2.9120 C.3   203  INH203      0.0461
     32  C24      -19.3980   19.1890   -3.0370 C.ar  203  INH203     -0.0317
     33  C25      -20.3680   19.7000   -3.9380 C.ar  203  INH203     -0.0573
     34  C26      -21.6560   19.0940   -4.0180 C.ar  203  INH203     -0.0615
     35  C27      -21.9810   17.9720   -3.1970 C.ar  203  INH203     -0.0617
     36  C28      -21.0110   17.4580   -2.2940 C.ar  203  INH203     -0.0615
     37  C29      -19.7270   18.0660   -2.2160 C.ar  203  INH203     -0.0573
     38  O3       -17.7330   22.2250   -5.9260 O.2   203  INH203     -0.1528
     39  O4       -18.5820   22.7870   -3.5540 O.2   203  INH203     -0.1528
     40  C30      -15.9210   22.7670   -2.4050 C.ar  203  INH203     -0.0339
     41 Cl2       -14.9550   23.2720   -6.3270 Cl    203  INH203     -0.0815
     42  H1       -14.6670   23.2180   -0.6820 H     203  INH203      0.0618
     43  H2       -12.7440   24.0390   -2.0610 H     203  INH203      0.0618
     44  H3       -12.9140   24.0390   -4.5510 H     203  INH203      0.0633
     45  H4       -16.2950   20.3950   -5.8930 H     203  INH203      0.0551
     46  H5       -18.1800   18.3100   -5.4120 H     203  INH203      0.0551
     47  H6       -21.1390   18.6710   -6.8150 H     203  INH203      0.0637
     48  H7       -22.8920   16.9170   -6.4950 H     203  INH203      0.0618
     49  H8       -22.5160   14.5910   -7.3640 H     203  INH203      0.0618
     50  H9       -20.3800   14.0320   -8.5520 H     203  INH203      0.0633
     51  H10      -16.1490   17.6400   -8.9300 H     203  INH203      0.0493
     52  H11      -15.2400   17.3700   -7.4040 H     203  INH203      0.0493
     53  H12      -16.5370   20.4370   -9.2940 H     203  INH203      0.0621
     54  H13      -15.1070   22.4210   -9.8160 H     203  INH203      0.0618
     55  H14      -12.7010   22.4610   -9.1040 H     203  INH203      0.0618
     56  H15      -11.7320   20.5030   -7.8670 H     203  INH203      0.0618
     57  H16      -13.1620   18.5190   -7.3500 H     203  INH203      0.0621
     58  H17      -16.2570   16.3720   -5.6210 H     203  INH203      0.0830
     59  H18      -16.8280   16.9870   -4.0330 H     203  INH203      0.0830
     60  H19      -14.3840   17.6690   -5.5040 H     203  INH203      0.2015
     61  H20      -14.5810   17.3670   -3.8980 H     203  INH203      0.2015
     62  H21      -15.1320   19.4630   -3.3700 H     203  INH203      0.0830
     63  H22      -14.3150   19.8230   -4.9280 H     203  INH203      0.0830
     64  H23      -18.0800   20.6000   -2.1440 H     203  INH203      0.0493
     65  H24      -17.3300   19.0230   -2.5650 H     203  INH203      0.0493
     66  H25      -20.1300   20.5510   -4.5650 H     203  INH203      0.0621
     67  H26      -22.3940   19.4880   -4.7070 H     203  INH203      0.0618
     68  H27      -22.9620   17.5150   -3.2620 H     203  INH203      0.0618
     69  H28      -21.2490   16.6060   -1.6670 H     203  INH203      0.0618
     70  H29      -18.9890   17.6730   -1.5260 H     203  INH203      0.0621
     71  H30      -16.7480   22.4140   -1.7990 H     203  INH203      0.0637
@<TRIPOS>BOND
     1     1    42    1
     2     1    40   ar
     3     1     2   ar
     4     2    43    1
     5     2     3   ar
     6     3    44    1
     7     3     4   ar
     8     4    41    1
     9     4     5   ar
    10     5    40   ar
    11     5     6    1
    12     6    39    2
    13     6    38    2
    14     6     7    1
    15     7    31    1
    16     7     8    1
    17     8    45    1
    18     8    30    1
    19     8     9    1
    20     9    46    1
    21     9    28    1
    22     9    10    1
    23    10    21    1
    24    10    11    1
    25    11    14    1
    26    11    13    2
    27    11    12    2
    28    14    19   ar
    29    14    15   ar
    30    15    47    1
    31    15    16   ar
    32    16    48    1
    33    16    17   ar
    34    17    49    1
    35    17    18   ar
    36    18    50    1
    37    18    19   ar
    38    19    20    1
    39    21    52    1
    40    21    51    1
    41    21    22    1
    42    22    27   ar
    43    22    23   ar
    44    23    53    1
    45    23    24   ar
    46    24    54    1
    47    24    25   ar
    48    25    55    1
    49    25    26   ar
    50    26    56    1
    51    26    27   ar
    52    27    57    1
    53    28    59    1
    54    28    58    1
    55    28    29    1
    56    29    61    1
    57    29    60    1
    58    29    30    1
    59    30    63    1
    60    30    62    1
    61    31    65    1
    62    31    64    1
    63    31    32    1
    64    32    37   ar
    65    32    33   ar
    66    33    66    1
    67    33    34   ar
    68    34    67    1
    69    34    35   ar
    70    35    68    1
    71    35    36   ar
    72    36    69    1
    73    36    37   ar
    74    37    70    1
    75    40    71    1
