@<TRIPOS>MOLECULE
/tmp/ewbell/vina_2qnq_2qnq_lig/vina/vina5.pdbqt
 43 47 0 0 0
SMALL
GASTEIGER

@<TRIPOS>ATOM
      1  C6       -17.8850   20.8000   -5.5980 C.3   203  INH203      0.1470
      2  C7       -16.3860   20.3630   -5.3620 C.3   203  INH203      0.1470
      3  C21      -16.2150   20.5560   -3.8320 C.3   203  INH203      0.2600
      4  N3       -17.1010   21.6880   -3.4620 N.4   203  INH203     -0.0710
      5  C22      -18.2840   21.6420   -4.3520 C.3   203  INH203      0.2600
      6  H19      -16.6120   22.5610   -3.5860 H     203  INH203      0.2770
      7  H20      -17.3910   21.5980   -2.5020 H     203  INH203      0.2770
      8  N1       -18.8480   19.6890   -5.8940 N.3   203  INH203     -0.2940
      9  S1       -18.2210   18.3880   -6.9350 S.O2  203  INH203      0.2630
     10  O4       -17.2920   17.5110   -6.2360 O.2   203  INH203     -0.2000
     11  O3       -17.9560   19.0210   -8.2200 O.2   203  INH203     -0.2000
     12  C5       -19.7360   17.3760   -6.9440 C.ar  203  INH203      0.1010
     13  C4       -20.8980   17.5710   -7.7660 C.ar  203  INH203      0.0570
     14  C3       -22.0080   16.6820   -7.6670 C.ar  203  INH203      0.0250
     15 Cl2       -21.0210   18.8670   -8.8940 Cl    203  INH203     -0.0830
     16  C2       -21.9870   15.5930   -6.7620 C.ar  203  INH203      0.0020
     17  C1       -20.8520   15.3840   -5.9420 C.ar  203  INH203      0.0020
     18  C30      -19.7420   16.2670   -6.0350 C.ar  203  INH203      0.0270
     19  C23      -20.2370   19.6310   -5.3720 C.3   203  INH203      0.1740
     20  C24      -20.5080   18.9460   -4.0320 C.ar  203  INH203     -0.0400
     21  C29      -21.8580   18.6520   -3.6660 C.ar  203  INH203      0.0090
     22  C28      -22.1540   18.0070   -2.4330 C.ar  203  INH203      0.0010
     23  C27      -21.0970   17.6490   -1.5530 C.ar  203  INH203      0.0000
     24  C26      -19.7470   17.9400   -1.9150 C.ar  203  INH203      0.0010
     25  C25      -19.4540   18.5880   -3.1510 C.ar  203  INH203      0.0090
     26  N2       -15.4240   21.1000   -6.2390 N.3   203  INH203     -0.2940
     27  C14      -15.3880   22.5800   -6.3590 C.3   203  INH203      0.1740
     28  C15      -14.6590   23.3120   -5.2030 C.ar  203  INH203     -0.0400
     29  C20      -13.3300   22.9450   -4.8240 C.ar  203  INH203      0.0090
     30  C19      -12.6580   23.6240   -3.7710 C.ar  203  INH203      0.0010
     31  C18      -13.3090   24.6830   -3.0780 C.ar  203  INH203      0.0000
     32  C17      -14.6340   25.0580   -3.4440 C.ar  203  INH203      0.0010
     33  C16      -15.3020   24.3760   -4.4980 C.ar  203  INH203      0.0090
     34  S2       -14.2560   20.1760   -7.1410 S.O2  203  INH203      0.2630
     35  O2       -14.9780   19.4460   -8.1810 O.2   203  INH203     -0.2000
     36  O1       -13.5150   19.3770   -6.1860 O.2   203  INH203     -0.2000
     37  C8       -13.1140   21.2390   -8.0440 C.ar  203  INH203      0.1010
     38  C13      -13.4800   21.9590   -9.2390 C.ar  203  INH203      0.0570
     39  C12      -12.5140   22.7720   -9.9110 C.ar  203  INH203      0.0250
     40 Cl1       -15.0850   21.8720   -9.9180 Cl    203  INH203     -0.0830
     41  C11      -11.1860   22.8770   -9.4080 C.ar  203  INH203      0.0020
     42  C10      -10.8180   22.1650   -8.2280 C.ar  203  INH203      0.0020
     43  C9       -11.7790   21.3560   -7.5580 C.ar  203  INH203      0.0270
@<TRIPOS>BOND
     1    40    38    1
     2    39    41   ar
     3    39    38   ar
     4    41    42   ar
     5    38    37   ar
     6    15    13    1
     7    42    43   ar
     8    11     9    2
     9    35    34    2
    10    37    43   ar
    11    37    34    1
    12    13    14   ar
    13    13    12   ar
    14    14    16   ar
    15    34    26    1
    16    34    36    2
    17    12     9    1
    18    12    18   ar
    19     9    10    2
    20     9     8    1
    21    16    17   ar
    22    27    26    1
    23    27    28    1
    24    26     2    1
    25    18    17   ar
    26     8     1    1
    27     8    19    1
    28     1     2    1
    29     1     5    1
    30    19    20    1
    31     2     3    1
    32    28    29   ar
    33    28    33   ar
    34    29    30   ar
    35    33    32   ar
    36     5     4    1
    37    20    21   ar
    38    20    25   ar
    39     3     4    1
    40    30    31   ar
    41    21    22   ar
    42     6     4    1
    43     4     7    1
    44    32    31   ar
    45    25    24   ar
    46    22    23   ar
    47    24    23   ar
