@<TRIPOS>MOLECULE
/tmp/ewbell/vina_2qnq_2qnq_lig/vina/vina3.pdbqt
 43 47 0 0 0
SMALL
GASTEIGER

@<TRIPOS>ATOM
      1  C6       -16.6640   20.6990   -5.1270 C.3   203  INH203      0.1470
      2  C7       -15.2780   20.2180   -5.7130 C.3   203  INH203      0.1470
      3  C21      -14.4780   19.8550   -4.4330 C.3   203  INH203      0.2600
      4  N3       -14.9640   20.7740   -3.3750 N.4   203  INH203     -0.0710
      5  C22      -16.3980   21.0390   -3.6320 C.3   203  INH203      0.2600
      6  H19      -14.4440   21.6370   -3.4050 H     203  INH203      0.2770
      7  H20      -14.8510   20.3460   -2.4700 H     203  INH203      0.2770
      8  N1       -17.8150   19.7590   -5.3240 N.3   203  INH203     -0.2940
      9  S1       -17.7930   18.2970   -4.3080 S.O2  203  INH203      0.2630
     10  O4       -17.5270   18.5930   -2.9060 O.2   203  INH203     -0.2000
     11  O3       -17.0830   17.2970   -5.0930 O.2   203  INH203     -0.2000
     12  C5       -19.5950   18.0290   -4.2840 C.ar  203  INH203      0.1010
     13  C4       -20.3300   17.0450   -5.0310 C.ar  203  INH203      0.0570
     14  C3       -21.7460   16.9500   -4.8970 C.ar  203  INH203      0.0250
     15 Cl2       -19.5630   15.9490   -6.1150 Cl    203  INH203     -0.0830
     16  C2       -22.4530   17.8160   -4.0280 C.ar  203  INH203      0.0020
     17  C1       -21.7490   18.7930   -3.2840 C.ar  203  INH203      0.0020
     18  C30      -20.3360   18.8950   -3.4140 C.ar  203  INH203      0.0270
     19  C23      -18.9240   19.9910   -6.2830 C.3   203  INH203      0.1740
     20  C24      -18.9990   19.1580   -7.5630 C.ar  203  INH203     -0.0400
     21  C29      -17.7830   18.7380   -8.1870 C.ar  203  INH203      0.0090
     22  C28      -17.8070   17.9530   -9.3730 C.ar  203  INH203      0.0010
     23  C27      -19.0530   17.5800   -9.9460 C.ar  203  INH203      0.0000
     24  C26      -20.2690   17.9960   -9.3250 C.ar  203  INH203      0.0010
     25  C25      -20.2410   18.7840   -8.1370 C.ar  203  INH203      0.0090
     26  N2       -14.6550   21.2250   -6.6260 N.3   203  INH203     -0.2940
     27  C14      -14.8730   22.6900   -6.5050 C.3   203  INH203      0.1740
     28  C15      -14.2000   23.3520   -5.2750 C.ar  203  INH203     -0.0400
     29  C20      -12.8120   23.1500   -5.0000 C.ar  203  INH203      0.0090
     30  C19      -12.1940   23.7660   -3.8780 C.ar  203  INH203      0.0010
     31  C18      -12.9590   24.5960   -3.0110 C.ar  203  INH203      0.0000
     32  C17      -14.3440   24.8050   -3.2730 C.ar  203  INH203      0.0010
     33  C16      -14.9580   24.1860   -4.3960 C.ar  203  INH203      0.0090
     34  S2       -13.5840   20.6570   -7.8760 S.O2  203  INH203      0.2630
     35  O2       -14.3280   20.6700   -9.1340 O.2   203  INH203     -0.2000
     36  O1       -13.0680   19.3740   -7.4430 O.2   203  INH203     -0.2000
     37  C8       -12.2110   21.7920   -8.1500 C.ar  203  INH203      0.1010
     38  C13      -12.3380   23.0230   -8.8900 C.ar  203  INH203      0.0570
     39  C12      -11.1980   23.8660   -9.0800 C.ar  203  INH203      0.0250
     40 Cl1       -13.8540   23.5340   -9.5850 Cl    203  INH203     -0.0830
     41  C11       -9.9320   23.4980   -8.5420 C.ar  203  INH203      0.0020
     42  C10       -9.8010   22.2810   -7.8110 C.ar  203  INH203      0.0020
     43  C9       -10.9350   21.4410   -7.6210 C.ar  203  INH203      0.0270
@<TRIPOS>BOND
     1    23    22   ar
     2    23    24   ar
     3    40    38    1
     4    22    21   ar
     5    24    25   ar
     6    35    34    2
     7    39    38   ar
     8    39    41   ar
     9    38    37   ar
    10    41    42   ar
    11    21    20   ar
    12    37    34    1
    13    37    43   ar
    14    25    20   ar
    15    34    36    2
    16    34    26    1
    17    42    43   ar
    18    20    19    1
    19    26    27    1
    20    26     2    1
    21    27    28    1
    22    19     8    1
    23    15    13    1
    24     2     1    1
    25     2     3    1
    26     8     1    1
    27     8     9    1
    28    28    29   ar
    29    28    33   ar
    30     1     5    1
    31    11     9    2
    32    13    14   ar
    33    13    12   ar
    34    29    30   ar
    35    14    16   ar
    36     3     4    1
    37    33    32   ar
    38     9    12    1
    39     9    10    2
    40    12    18   ar
    41    16    17   ar
    42    30    31   ar
    43     5     4    1
    44    18    17   ar
    45     6     4    1
    46     4     7    1
    47    32    31   ar
