@<TRIPOS>MOLECULE
/tmp/ewbell/vina_2qnq_2qnq_lig/vina/vina2.pdbqt
 43 47 0 0 0
SMALL
GASTEIGER

@<TRIPOS>ATOM
      1  C6       -17.8260   19.9690   -6.0410 C.3   203  INH203      0.1470
      2  C7       -16.9580   20.3490   -4.7770 C.3   203  INH203      0.1470
      3  C21      -18.0380   20.6990   -3.7190 C.3   203  INH203      0.2600
      4  N3       -19.1820   21.2640   -4.4760 N.4   203  INH203     -0.0710
      5  C22      -19.2340   20.5810   -5.7890 C.3   203  INH203      0.2600
      6  H19      -19.0500   22.2550   -4.6090 H     203  INH203      0.2770
      7  H20      -20.0400   21.1050   -3.9720 H     203  INH203      0.2770
      8  N1       -17.8690   18.5110   -6.3870 N.3   203  INH203     -0.2940
      9  S1       -17.3920   18.1050   -8.0540 S.O2  203  INH203      0.2630
     10  O4       -16.2800   17.1640   -8.1050 O.2   203  INH203     -0.2000
     11  O3       -17.4470   19.3640   -8.7840 O.2   203  INH203     -0.2000
     12  C5       -18.8050   17.0130   -8.4180 C.ar  203  INH203      0.1010
     13  C4       -20.1710   17.4100   -8.6150 C.ar  203  INH203      0.0570
     14  C3       -21.1700   16.4350   -8.9070 C.ar  203  INH203      0.0250
     15 Cl2       -20.6790   19.0520   -8.5080 Cl    203  INH203     -0.0830
     16  C2       -20.8350   15.0620   -9.0100 C.ar  203  INH203      0.0020
     17  C1       -19.4940   14.6500   -8.8180 C.ar  203  INH203      0.0020
     18  C30      -18.4940   15.6180   -8.5260 C.ar  203  INH203      0.0270
     19  C23      -18.2680   17.4420   -5.4380 C.3   203  INH203      0.1740
     20  C24      -19.5870   17.5670   -4.6750 C.ar  203  INH203     -0.0400
     21  C29      -19.5520   17.8590   -3.2750 C.ar  203  INH203      0.0090
     22  C28      -20.7560   17.9940   -2.5300 C.ar  203  INH203      0.0010
     23  C27      -22.0100   17.8390   -3.1810 C.ar  203  INH203      0.0000
     24  C26      -22.0490   17.5490   -4.5790 C.ar  203  INH203      0.0010
     25  C25      -20.8400   17.4130   -5.3230 C.ar  203  INH203      0.0090
     26  N2       -15.9420   21.4070   -5.0690 N.3   203  INH203     -0.2940
     27  C14      -16.1920   22.8600   -4.8840 C.3   203  INH203      0.1740
     28  C15      -15.2880   23.5480   -3.8290 C.ar  203  INH203     -0.0400
     29  C20      -15.2040   23.0460   -2.4930 C.ar  203  INH203      0.0090
     30  C19      -14.3670   23.6720   -1.5300 C.ar  203  INH203      0.0010
     31  C18      -13.5990   24.8150   -1.8900 C.ar  203  INH203      0.0000
     32  C17      -13.6740   25.3270   -3.2180 C.ar  203  INH203      0.0010
     33  C16      -14.5140   24.6980   -4.1780 C.ar  203  INH203      0.0090
     34  S2       -14.3680   20.9100   -5.6220 S.O2  203  INH203      0.2630
     35  O2       -14.4450   19.4890   -5.9550 O.2   203  INH203     -0.2000
     36  O1       -13.4190   21.2820   -4.5920 O.2   203  INH203     -0.2000
     37  C8       -13.9160   21.7140   -7.1700 C.ar  203  INH203      0.1010
     38  C13      -12.8020   22.6220   -7.2940 C.ar  203  INH203      0.0570
     39  C12      -12.5140   23.2350   -8.5540 C.ar  203  INH203      0.0250
     40 Cl1       -11.7750   23.0190   -5.9410 Cl    203  INH203     -0.0830
     41  C11      -13.3210   22.9550   -9.6930 C.ar  203  INH203      0.0020
     42  C10      -14.4240   22.0600   -9.5750 C.ar  203  INH203      0.0020
     43  C9       -14.7130   21.4490   -8.3210 C.ar  203  INH203      0.0270
@<TRIPOS>BOND
     1    41    42   ar
     2    41    39   ar
     3    42    43   ar
     4    16    14   ar
     5    16    17   ar
     6    14    13   ar
     7    17    18   ar
     8    11     9    2
     9    13    15    1
    10    13    12   ar
    11    39    38   ar
    12    18    12   ar
    13    12     9    1
    14    43    37   ar
    15    10     9    2
    16     9     8    1
    17    38    37   ar
    18    38    40    1
    19    37    34    1
    20     8     1    1
    21     8    19    1
    22     1     5    1
    23     1     2    1
    24    35    34    2
    25     5     4    1
    26    34    26    1
    27    34    36    2
    28    19    20    1
    29    25    20   ar
    30    25    24   ar
    31    26    27    1
    32    26     2    1
    33    27    28    1
    34     2     3    1
    35    20    21   ar
    36     6     4    1
    37    24    23   ar
    38     4     7    1
    39     4     3    1
    40    33    28   ar
    41    33    32   ar
    42    28    29   ar
    43    21    22   ar
    44    32    31   ar
    45    23    22   ar
    46    29    30   ar
    47    31    30   ar
