@<TRIPOS>MOLECULE
/tmp/ewbell/vina_2qnq_2qnq_lig/vina/vina1.pdbqt
 43 47 0 0 0
SMALL
GASTEIGER

@<TRIPOS>ATOM
      1  C6       -19.9630   18.7960   -5.0520 C.3   203  INH203      0.1470
      2  C7       -18.4340   18.4840   -4.8030 C.3   203  INH203      0.1470
      3  C21      -18.3650   18.3470   -3.2580 C.3   203  INH203      0.2600
      4  N3       -19.4010   19.2630   -2.7210 N.4   203  INH203     -0.0710
      5  C22      -20.5240   19.2890   -3.6870 C.3   203  INH203      0.2600
      6  H19      -19.0180   20.1900   -2.6150 H     203  INH203      0.2770
      7  H20      -19.7250   18.9290   -1.8270 H     203  INH203      0.2770
      8  N1       -20.7650   17.6810   -5.6530 N.3   203  INH203     -0.2940
      9  S1       -21.3950   16.4810   -4.4980 S.O2  203  INH203      0.2630
     10  O4       -21.3900   16.9680   -3.1260 O.2   203  INH203     -0.2000
     11  O3       -20.8340   15.2070   -4.9280 O.2   203  INH203     -0.2000
     12  C5       -23.1530   16.6640   -4.9400 C.ar  203  INH203      0.1010
     13  C4       -23.8680   15.9360   -5.9520 C.ar  203  INH203      0.0570
     14  C3       -25.2540   16.1850   -6.1740 C.ar  203  INH203      0.0250
     15 Cl2       -23.1100   14.7470   -6.9400 Cl    203  INH203     -0.0830
     16  C2       -25.9510   17.1490   -5.4050 C.ar  203  INH203      0.0020
     17  C1       -25.2650   17.8790   -4.4050 C.ar  203  INH203      0.0020
     18  C30      -23.8820   17.6360   -4.1780 C.ar  203  INH203      0.0270
     19  C23      -21.0480   17.5490   -7.1050 C.3   203  INH203      0.1740
     20  C24      -19.9010   17.2440   -8.0690 C.ar  203  INH203     -0.0400
     21  C29      -19.3900   15.9100   -8.1360 C.ar  203  INH203      0.0090
     22  C28      -18.3310   15.5810   -9.0270 C.ar  203  INH203      0.0010
     23  C27      -17.7730   16.5870   -9.8620 C.ar  203  INH203      0.0000
     24  C26      -18.2820   17.9200   -9.7980 C.ar  203  INH203      0.0010
     25  C25      -19.3420   18.2460   -8.9030 C.ar  203  INH203      0.0090
     26  N2       -17.5280   19.4990   -5.4240 N.3   203  INH203     -0.2940
     27  C14      -17.8510   20.9470   -5.5080 C.3   203  INH203      0.1740
     28  C15      -16.9170   21.8730   -4.6880 C.ar  203  INH203     -0.0400
     29  C20      -16.5180   21.5250   -3.3610 C.ar  203  INH203      0.0090
     30  C19      -15.6530   22.3700   -2.6130 C.ar  203  INH203      0.0010
     31  C18      -15.1740   23.5820   -3.1860 C.ar  203  INH203      0.0000
     32  C17      -15.5640   23.9420   -4.5080 C.ar  203  INH203      0.0010
     33  C16      -16.4300   23.0930   -5.2510 C.ar  203  INH203      0.0090
     34  S2       -15.9940   18.9630   -6.0490 S.O2  203  INH203      0.2630
     35  O2       -16.2270   17.7250   -6.7890 O.2   203  INH203     -0.2000
     36  O1       -15.0810   18.8840   -4.9250 O.2   203  INH203     -0.2000
     37  C8       -15.3330   20.1070   -7.2750 C.ar  203  INH203      0.1010
     38  C13      -14.2700   21.0400   -6.9950 C.ar  203  INH203      0.0570
     39  C12      -13.8080   21.9280   -8.0160 C.ar  203  INH203      0.0250
     40 Cl1       -13.5120   21.1370   -5.4270 Cl    203  INH203     -0.0830
     41  C11      -14.3930   21.9000   -9.3140 C.ar  203  INH203      0.0020
     42  C10      -15.4460   20.9810   -9.5960 C.ar  203  INH203      0.0020
     43  C9       -15.9060   20.0960   -8.5800 C.ar  203  INH203      0.0270
@<TRIPOS>BOND
     1    23    24   ar
     2    23    22   ar
     3    24    25   ar
     4    42    41   ar
     5    42    43   ar
     6    41    39   ar
     7    22    21   ar
     8    25    20   ar
     9    43    37   ar
    10    21    20   ar
    11    20    19    1
    12    39    38   ar
    13    37    38   ar
    14    37    34    1
    15    19     8    1
    16    38    40    1
    17    15    13    1
    18    35    34    2
    19    14    13   ar
    20    14    16   ar
    21    34    26    1
    22    34    36    2
    23    13    12   ar
    24     8     1    1
    25     8     9    1
    26    27    26    1
    27    27    28    1
    28    26     2    1
    29    16    17   ar
    30    33    28   ar
    31    33    32   ar
    32     1     2    1
    33     1     5    1
    34    12     9    1
    35    12    18   ar
    36    11     9    2
    37     2     3    1
    38    28    29   ar
    39    32    31   ar
    40     9    10    2
    41    17    18   ar
    42     5     4    1
    43    29    30   ar
    44     3     4    1
    45    31    30   ar
    46     4     6    1
    47     4     7    1
