@<TRIPOS>MOLECULE
/tmp/ewbell/vina_2qnq_2qnq_lig/vina/vina4.pdbqt
 43 47 0 0 0
SMALL
GASTEIGER

@<TRIPOS>ATOM
      1  C6       -17.6800   19.5750   -4.7660 C.3   203  INH203      0.1470
      2  C7       -19.1520   20.1060   -4.9820 C.3   203  INH203      0.1470
      3  C21      -19.6210   20.3990   -3.5320 C.3   203  INH203      0.2600
      4  N3       -18.9250   19.4120   -2.6700 N.4   203  INH203     -0.0710
      5  C22      -17.5980   19.1470   -3.2720 C.3   203  INH203      0.2600
      6  H19      -19.4580   18.5580   -2.6270 H     203  INH203      0.2770
      7  H20      -18.8120   19.7860   -1.7420 H     203  INH203      0.2770
      8  N1       -16.5830   20.5120   -5.1730 N.3   203  INH203     -0.2940
      9  S1       -15.0110   19.7490   -5.5150 S.O2  203  INH203      0.2630
     10  O4       -15.1400   18.5280   -6.2990 O.2   203  INH203     -0.2000
     11  O3       -14.2540   19.8640   -4.2760 O.2   203  INH203     -0.2000
     12  C5       -14.4710   20.9380   -6.7860 C.ar  203  INH203      0.1010
     13  C4       -15.0840   21.1700   -8.0640 C.ar  203  INH203      0.0570
     14  C3       -14.5490   22.1490   -8.9530 C.ar  203  INH203      0.0250
     15 Cl2       -16.4700   20.2960   -8.5940 Cl    203  INH203     -0.0830
     16  C2       -13.4090   22.9100   -8.5930 C.ar  203  INH203      0.0020
     17  C1       -12.7890   22.6950   -7.3390 C.ar  203  INH203      0.0020
     18  C30      -13.3170   21.7190   -6.4490 C.ar  203  INH203      0.0270
     19  C23      -16.7500   21.9810   -5.3040 C.3   203  INH203      0.1740
     20  C24      -16.1160   22.9050   -4.2650 C.ar  203  INH203     -0.0400
     21  C29      -15.4050   24.0630   -4.7100 C.ar  203  INH203      0.0090
     22  C28      -14.8080   24.9550   -3.7750 C.ar  203  INH203      0.0010
     23  C27      -14.9200   24.6950   -2.3820 C.ar  203  INH203      0.0000
     24  C26      -15.6300   23.5410   -1.9340 C.ar  203  INH203      0.0010
     25  C25      -16.2260   22.6480   -2.8730 C.ar  203  INH203      0.0090
     26  N2       -19.9960   19.1620   -5.7780 N.3   203  INH203     -0.2940
     27  C14      -20.1580   19.2490   -7.2530 C.3   203  INH203      0.1740
     28  C15      -19.2230   18.3180   -8.0680 C.ar  203  INH203     -0.0400
     29  C20      -18.1020   17.6800   -7.4520 C.ar  203  INH203      0.0090
     30  C19      -17.2520   16.8190   -8.1990 C.ar  203  INH203      0.0010
     31  C18      -17.5120   16.5840   -9.5780 C.ar  203  INH203      0.0000
     32  C17      -18.6260   17.2140  -10.2050 C.ar  203  INH203      0.0010
     33  C16      -19.4730   18.0750   -9.4540 C.ar  203  INH203      0.0090
     34  S2       -20.8040   17.8680   -4.9390 S.O2  203  INH203      0.2630
     35  O2       -21.5580   18.4600   -3.8360 O.2   203  INH203     -0.2000
     36  O1       -19.7910   16.8960   -4.5820 O.2   203  INH203     -0.2000
     37  C8       -22.0540   17.0780   -5.9700 C.ar  203  INH203      0.1010
     38  C13      -21.7790   15.9430   -6.8160 C.ar  203  INH203      0.0570
     39  C12      -22.8190   15.3780   -7.6180 C.ar  203  INH203      0.0250
     40 Cl1       -20.1950   15.2180   -6.9090 Cl    203  INH203     -0.0830
     41  C11      -24.1320   15.9310   -7.5900 C.ar  203  INH203      0.0020
     42  C10      -24.4080   17.0550   -6.7570 C.ar  203  INH203      0.0020
     43  C9       -23.3720   17.6180   -5.9570 C.ar  203  INH203      0.0270
@<TRIPOS>BOND
     1    32    31   ar
     2    32    33   ar
     3    31    30   ar
     4    33    28   ar
     5    14    16   ar
     6    14    13   ar
     7    15    13    1
     8    16    17   ar
     9    30    29   ar
    10    28    29   ar
    11    28    27    1
    12    13    12   ar
    13    39    41   ar
    14    39    38   ar
    15    41    42   ar
    16    17    18   ar
    17    27    26    1
    18    40    38    1
    19    38    37   ar
    20    12    18   ar
    21    12     9    1
    22    42    43   ar
    23    10     9    2
    24    37    43   ar
    25    37    34    1
    26    26     2    1
    27    26    34    1
    28     9     8    1
    29     9    11    2
    30    19     8    1
    31    19    20    1
    32     8     1    1
    33     2     1    1
    34     2     3    1
    35    34    36    2
    36    34    35    2
    37     1     5    1
    38    21    20   ar
    39    21    22   ar
    40    20    25   ar
    41    22    23   ar
    42     3     4    1
    43     5     4    1
    44    25    24   ar
    45     4     6    1
    46     4     7    1
    47    23    24   ar
