@<TRIPOS>MOLECULE
./ligand/2zmm_lig.pdb
 52 54 0 0 0
SMALL
GASTEIGER

@<TRIPOS>ATOM
      1  C1        50.0570   10.7540   -2.5090 C.3   300  INH300      0.0015
      2  C2        49.6410    9.2770   -0.5530 C.2   300  INH300      0.3065
      3  C3        47.3210    9.4030    0.3500 C.ar  300  INH300      0.0386
      4  C4        46.2340    8.6670   -0.1410 C.ar  300  INH300     -0.0402
      5  C5        44.9570    9.2310   -0.1530 C.ar  300  INH300     -0.0594
      6  C6        44.7460   10.5240    0.3240 C.ar  300  INH300     -0.0534
      7  N1        49.1950   10.2140   -1.4830 N.am  300  INH300     -0.3020
      8  C7        45.8180   11.2740    0.8150 C.ar  300  INH300     -0.0083
      9  O1        50.8010    8.8580   -0.5660 O.2   300  INH300     -0.2523
     10  C8        47.0970   10.7070    0.8260 C.ar  300  INH300     -0.0320
     11  C9        45.6110   12.6340    1.3100 C.ar  300  INH300      0.0378
     12  C10       46.1750   13.3160    2.3680 C.ar  300  INH300      0.0751
     13  C11       45.6830   14.6450    2.5200 C.ar  300  INH300      0.1570
     14  C12       44.7930   14.9560    1.5080 C.ar  300  INH300      0.1436
     15  C13       44.0370   16.3110    1.2730 C.2   300  INH300      0.3966
     16  C14       47.3220   16.1890    3.2570 C.3   300  INH300      0.1902
     17  C15       47.6360   17.0070    4.5180 C.2   300  INH300      0.3927
     18  C16       48.9960    7.8730    1.4450 C.3   300  INH300      0.0326
     19  C17       48.8670    6.4000    1.0090 C.3   300  INH300     -0.0338
     20  C18       48.0750    5.5730    2.0210 C.3   300  INH300     -0.0514
     21  C19       48.6020    5.7170    3.4480 C.3   300  INH300     -0.0529
     22  C20       48.7840    7.1760    3.8620 C.3   300  INH300     -0.0514
     23  C21       48.2940    8.1430    2.7840 C.3   300  INH300     -0.0338
     24  N2        48.6560    8.8640    0.3800 N.am  300  INH300     -0.2525
     25  S1        44.5220   13.6420    0.4520 S.2   300  INH300     -0.0769
     26  O2        43.8980   17.1050    2.2490 O.co2 300  INH300     -0.2399
     27  O3        43.6330   16.4930    0.0830 O.co2 300  INH300     -0.2399
     28  O4        46.0740   15.5200    3.4910 O.3   300  INH300     -0.4781
     29  O5        46.7510   17.0080    5.4220 O.co2 300  INH300     -0.2425
     30  O6        48.7580   17.5880    4.5160 O.co2 300  INH300     -0.2425
     31 Br1        47.4230   12.5860    3.5860 Br    300  INH300     -0.0453
     32  H1        49.4920   11.4710   -3.1230 H     300  INH300      0.0426
     33  H2        50.4250    9.9360   -3.1460 H     300  INH300      0.0426
     34  H3        50.9100   11.2660   -2.0390 H     300  INH300      0.0426
     35  H4        46.3850    7.6600   -0.5120 H     300  INH300      0.0636
     36  H5        44.1210    8.6580   -0.5370 H     300  INH300      0.0618
     37  H6        43.7490   10.9480    0.3140 H     300  INH300      0.0624
     38  H7        48.2450   10.5240   -1.4390 H     300  INH300      0.1499
     39  H8        47.9310   11.2840    1.2090 H     300  INH300      0.0642
     40  H9        47.2360   16.8550    2.3860 H     300  INH300      0.0817
     41  H10       48.1180   15.4510    3.0770 H     300  INH300      0.0817
     42  H11       50.0680    8.0240    1.6410 H     300  INH300      0.0505
     43  H12       49.8740    5.9690    0.9090 H     300  INH300      0.0283
     44  H13       48.3530    6.3600    0.0370 H     300  INH300      0.0283
     45  H14       48.1330    4.5140    1.7310 H     300  INH300      0.0266
     46  H15       47.0260    5.9030    1.9990 H     300  INH300      0.0266
     47  H16       49.5740    5.2070    3.5180 H     300  INH300      0.0265
     48  H17       47.8880    5.2420    4.1370 H     300  INH300      0.0265
     49  H18       49.8520    7.3620    4.0470 H     300  INH300      0.0266
     50  H19       48.2150    7.3570    4.7860 H     300  INH300      0.0266
     51  H20       47.2090    8.0170    2.6540 H     300  INH300      0.0283
     52  H21       48.5080    9.1740    3.1010 H     300  INH300      0.0283
@<TRIPOS>BOND
     1     1     7    1
     2     1    34    1
     3     1    33    1
     4     1    32    1
     5     2    24   am
     6     2     9    2
     7     2     7   am
     8     3    24    1
     9     3    10   ar
    10     3     4   ar
    11     4    35    1
    12     4     5   ar
    13     5    36    1
    14     5     6   ar
    15     6    37    1
    16     6     8   ar
    17     7    38    1
    18     8    11    1
    19     8    10   ar
    20    10    39    1
    21    11    25   ar
    22    11    12   ar
    23    12    31    1
    24    12    13   ar
    25    13    28    1
    26    13    14   ar
    27    14    25   ar
    28    14    15    1
    29    15    27   ar
    30    15    26   ar
    31    16    28    1
    32    16    41    1
    33    16    40    1
    34    16    17    1
    35    17    30   ar
    36    17    29   ar
    37    18    42    1
    38    18    24    1
    39    18    23    1
    40    18    19    1
    41    19    44    1
    42    19    43    1
    43    19    20    1
    44    20    46    1
    45    20    45    1
    46    20    21    1
    47    21    48    1
    48    21    47    1
    49    21    22    1
    50    22    50    1
    51    22    49    1
    52    22    23    1
    53    23    52    1
    54    23    51    1
