@<TRIPOS>MOLECULE
/tmp/ewbell/vina_2zmm_2zmm_lig/vina/vina4.pdbqt
 34 36 0 0 0
SMALL
GASTEIGER

@<TRIPOS>ATOM
      1  C3        42.6020   14.7960   -3.0410 C.ar  300  INH300      0.0400
      2  C4        42.6030   13.6570   -3.8590 C.ar  300  INH300      0.0300
      3  C5        43.2750   12.5040   -3.4490 C.ar  300  INH300      0.0030
      4  C6        43.9530   12.4700   -2.2310 C.ar  300  INH300      0.0130
      5  C7        43.9610   13.5950   -1.4020 C.ar  300  INH300     -0.0150
      6  C8        43.2870   14.7500   -1.8140 C.ar  300  INH300      0.0420
      7  C9        44.6610   13.5700   -0.1190 C.ar  300  INH300      0.0360
      8  S1        45.6020   12.1860    0.2530 S.2   300  INH300     -0.0790
      9  C12       46.0530   12.8130    1.7770 C.ar  300  INH300      0.1140
     10  C11       45.5200   14.0680    2.0080 C.ar  300  INH300      0.1120
     11  C10       44.6890   14.4720    0.9240 C.ar  300  INH300      0.0640
     12 Br1        43.7990   16.1400    0.9370 Br    300  INH300     -0.0470
     13  C13       46.9950   11.9790    2.7130 C.2   300  INH300      0.1860
     14  O3        46.9740   10.7260    2.5070 O.2   300  INH300     -0.6460
     15  O2        47.6780   12.5910    3.5860 O.3   300  INH300     -0.7720
     16  H         48.5430   12.3000    3.7930 H     300  INH300      0.1670
     17  O4        45.7230   14.7860    3.1510 O.3   300  INH300     -0.3380
     18  C14       46.7520   15.7850    3.0820 C.3   300  INH300      0.2850
     19  C15       46.3430   16.9170    4.0350 C.2   300  INH300      0.1640
     20  O6        47.2660   17.7280    4.3320 O.2   300  INH300     -0.6480
     21  O5        45.1400   16.9140    4.4280 O.3   300  INH300     -0.7750
     22  H         44.4440   16.9400    3.8020 H     300  INH300      0.1670
     23  N2        41.9210   16.0060   -3.4210 N.am  300  INH300     -0.2950
     24  C2        42.6370   17.1570   -3.8400 C.2   300  INH300      0.3220
     25  O1        42.1070   18.2220   -4.1630 O.2   300  INH300     -0.2470
     26  N1        44.0210   16.9980   -3.8580 N.am  300  INH300     -0.3470
     27  C1        44.9160   18.0610   -4.2530 C.3   300  INH300      0.1510
     28  H7        44.4100   16.1160   -3.5880 H     300  INH300      0.1630
     29  C16       40.4270   16.0170   -3.3950 C.3   300  INH300      0.0950
     30  C21       39.7860   15.5440   -4.7080 C.3   300  INH300      0.0260
     31  C20       38.2660   15.7030   -4.6620 C.3   300  INH300      0.0020
     32  C19       37.6500   14.9710   -3.4710 C.3   300  INH300      0.0000
     33  C18       38.7030   14.3460   -2.5570 C.3   300  INH300      0.0020
     34  C17       39.8070   15.3270   -2.1650 C.3   300  INH300      0.0260
@<TRIPOS>BOND
     1    30    31    1
     2    30    29    1
     3    31    32    1
     4    27    26    1
     5    25    24    2
     6     2     3   ar
     7     2     1   ar
     8    26    24   am
     9    26    28    1
    10    24    23   am
    11    32    33    1
    12     3     4   ar
    13    23    29    1
    14    23     1    1
    15    29    34    1
    16     1     6   ar
    17    33    34    1
    18     4     5   ar
    19     6     5   ar
    20     5     7    1
    21     7     8   ar
    22     7    11   ar
    23     8     9   ar
    24    11    12    1
    25    11    10   ar
    26     9    10   ar
    27     9    13    1
    28    10    17    1
    29    14    13    2
    30    13    15    1
    31    18    17    1
    32    18    19    1
    33    15    16    1
    34    22    21    1
    35    19    20    2
    36    19    21    1
