@<TRIPOS>MOLECULE
/tmp/ewbell/vina_2zmm_2zmm_lig/vina/vina3.pdbqt
 34 36 0 0 0
SMALL
GASTEIGER

@<TRIPOS>ATOM
      1  C3        47.6200    9.7170    0.1370 C.ar  300  INH300      0.0400
      2  C4        46.5820    8.8030   -0.0860 C.ar  300  INH300      0.0300
      3  C5        45.2600    9.1700    0.1730 C.ar  300  INH300      0.0030
      4  C6        44.9570   10.4420    0.6580 C.ar  300  INH300      0.0130
      5  C7        45.9790   11.3680    0.8840 C.ar  300  INH300     -0.0150
      6  C8        47.3030   10.9980    0.6230 C.ar  300  INH300      0.0420
      7  C9        45.6740   12.7070    1.3840 C.ar  300  INH300      0.0360
      8  S1        44.5130   13.6360    0.5310 S.2   300  INH300     -0.0790
      9  C12       44.6880   14.9630    1.5910 C.ar  300  INH300      0.1140
     10  C11       45.6010   14.7140    2.6000 C.ar  300  INH300      0.1120
     11  C10       46.1880   13.4260    2.4430 C.ar  300  INH300      0.0640
     12 Br1        47.4880   12.7840    3.6570 Br    300  INH300     -0.0470
     13  C13       43.8350   16.2590    1.3620 C.2   300  INH300      0.1860
     14  O3        44.1170   17.2250    2.1370 O.2   300  INH300     -0.6460
     15  O2        42.9460   16.2470    0.4610 O.3   300  INH300     -0.7720
     16  H         42.4570   15.4670    0.2940 H     300  INH300      0.1670
     17  O4        45.9280   15.6120    3.5750 O.3   300  INH300     -0.3380
     18  C14       47.1910   16.2740    3.4080 C.3   300  INH300      0.2850
     19  C15       47.5180   16.9560    4.7450 C.2   300  INH300      0.1640
     20  O6        48.7020   17.3840    4.8530 O.2   300  INH300     -0.6480
     21  O5        46.5810   17.0090    5.5930 O.3   300  INH300     -0.7750
     22  H         46.4140   17.8060    6.0570 H     300  INH300      0.1670
     23  N2        48.9980    9.3840   -0.1180 N.am  300  INH300     -0.2950
     24  C2        49.8030    8.7600    0.8700 C.2   300  INH300      0.3220
     25  O1        50.9890    8.4650    0.7100 O.2   300  INH300     -0.2470
     26  N1        49.1430    8.5000    2.0690 N.am  300  INH300     -0.3470
     27  C1        49.8000    7.8730    3.1920 C.3   300  INH300      0.1510
     28  H7        48.1790    8.7560    2.1560 H     300  INH300      0.1630
     29  C16       49.5600    9.6820   -1.4690 C.3   300  INH300      0.0950
     30  C21       48.7140    9.1270   -2.6240 C.3   300  INH300      0.0260
     31  C20       49.4100    9.3500   -3.9670 C.3   300  INH300      0.0020
     32  C19       49.7370   10.8230   -4.2040 C.3   300  INH300      0.0000
     33  C18       49.3880   11.7030   -3.0040 C.3   300  INH300      0.0020
     34  C17       49.9430   11.1590   -1.6880 C.3   300  INH300      0.0260
@<TRIPOS>BOND
     1    32    31    1
     2    32    33    1
     3    31    30    1
     4    33    34    1
     5    30    29    1
     6    34    29    1
     7    29    23    1
     8    23     1    1
     9    23    24   am
    10     2     1   ar
    11     2     3   ar
    12     1     6   ar
    13     3     4   ar
    14    16    15    1
    15    15    13    1
    16     8     7   ar
    17     8     9   ar
    18     6     5   ar
    19     4     5   ar
    20    25    24    2
    21    24    26   am
    22     5     7    1
    23    13     9    1
    24    13    14    2
    25     7    11   ar
    26     9    10   ar
    27    26    28    1
    28    26    27    1
    29    11    10   ar
    30    11    12    1
    31    10    17    1
    32    18    17    1
    33    18    19    1
    34    19    20    2
    35    19    21    1
    36    21    22    1
