@<TRIPOS>MOLECULE
/tmp/ewbell/vina_2zmm_2zmm_lig/vina/vina5.pdbqt
 34 36 0 0 0
SMALL
GASTEIGER

@<TRIPOS>ATOM
      1  C3        43.0020   14.3690   -2.8670 C.ar  300  INH300      0.0400
      2  C4        42.9960   13.0920   -3.4440 C.ar  300  INH300      0.0300
      3  C5        43.6030   12.0230   -2.7810 C.ar  300  INH300      0.0030
      4  C6        44.2220   12.2110   -1.5460 C.ar  300  INH300      0.0130
      5  C7        44.2350   13.4770   -0.9540 C.ar  300  INH300     -0.0150
      6  C8        43.6270   14.5460   -1.6200 C.ar  300  INH300      0.0420
      7  C9        44.8740   13.6850    0.3450 C.ar  300  INH300      0.0360
      8  S1        45.9670   12.4880    0.9010 S.2   300  INH300     -0.0790
      9  C12       46.2640   13.3310    2.3560 C.ar  300  INH300      0.1140
     10  C11       45.5640   14.5220    2.4270 C.ar  300  INH300      0.1120
     11  C10       44.7380   14.6910    1.2780 C.ar  300  INH300      0.0640
     12 Br1        43.6410   16.2170    1.0730 Br    300  INH300     -0.0470
     13  C13       47.2630   12.7370    3.4100 C.2   300  INH300      0.1860
     14  O3        47.6050   11.5320    3.1960 O.2   300  INH300     -0.6460
     15  O2        47.6350   13.4700    4.3730 O.3   300  INH300     -0.7720
     16  H         47.5590   14.4010    4.3100 H     300  INH300      0.1670
     17  O4        45.6200   15.3810    3.4860 O.3   300  INH300     -0.3380
     18  C14       46.3520   16.5950    3.2610 C.3   300  INH300      0.2850
     19  C15       47.3650   16.7270    4.4080 C.2   300  INH300      0.1640
     20  O6        46.8700   17.0440    5.5270 O.2   300  INH300     -0.6480
     21  O5        48.5770   16.5150    4.1150 O.3   300  INH300     -0.7750
     22  H         49.2400   16.6040    4.7700 H     300  INH300      0.1670
     23  N2        42.3870   15.5000   -3.5120 N.am  300  INH300     -0.2950
     24  C2        41.0100   15.7910   -3.3390 C.2   300  INH300      0.3220
     25  O1        40.4300   16.7370   -3.8770 O.2   300  INH300     -0.2470
     26  N1        40.3360   14.9070   -2.5000 N.am  300  INH300     -0.3470
     27  C1        38.9280   15.0410   -2.2070 C.3   300  INH300      0.1510
     28  H7        40.8450   14.1520   -2.0840 H     300  INH300      0.1630
     29  C16       43.2460   16.3900   -4.3500 C.3   300  INH300      0.0950
     30  C21       43.6690   17.6840   -3.6400 C.3   300  INH300      0.0260
     31  C20       44.4310   18.6050   -4.5930 C.3   300  INH300      0.0020
     32  C19       45.6450   17.9130   -5.2100 C.3   300  INH300      0.0000
     33  C18       45.7460   16.4410   -4.8120 C.3   300  INH300      0.0020
     34  C17       44.4390   15.6790   -5.0180 C.3   300  INH300      0.0260
@<TRIPOS>BOND
     1    32    33    1
     2    32    31    1
     3    34    33    1
     4    34    29    1
     5    31    30    1
     6    29    30    1
     7    29    23    1
     8    25    24    2
     9    23    24   am
    10    23     1    1
    11     2     1   ar
    12     2     3   ar
    13    24    26   am
    14     1     6   ar
    15     3     4   ar
    16    26    27    1
    17    26    28    1
    18     6     5   ar
    19     4     5   ar
    20     5     7    1
    21     7     8   ar
    22     7    11   ar
    23     8     9   ar
    24    12    11    1
    25    11    10   ar
    26     9    10   ar
    27     9    13    1
    28    10    17    1
    29    14    13    2
    30    18    17    1
    31    18    19    1
    32    13    15    1
    33    21    19    1
    34    21    22    1
    35    16    15    1
    36    19    20    2
