@<TRIPOS>MOLECULE
/tmp/ewbell/vina_2zmm_2zmm_lig/vina/vina2.pdbqt
 34 36 0 0 0
SMALL
GASTEIGER

@<TRIPOS>ATOM
      1  C3        46.6470    9.6320   -0.5480 C.ar  300  INH300      0.0400
      2  C4        47.1800    8.7820    0.4320 C.ar  300  INH300      0.0300
      3  C5        47.2880    9.2210    1.7530 C.ar  300  INH300      0.0030
      4  C6        46.8740   10.5020    2.1130 C.ar  300  INH300      0.0130
      5  C7        46.3380   11.3630    1.1510 C.ar  300  INH300     -0.0150
      6  C8        46.2310   10.9210   -0.1730 C.ar  300  INH300      0.0420
      7  C9        45.8930   12.7060    1.5180 C.ar  300  INH300      0.0360
      8  S1        44.7300   13.4670    0.5140 S.2   300  INH300     -0.0790
      9  C12       44.7220   14.8800    1.4720 C.ar  300  INH300      0.1140
     10  C11       45.5720   14.7850    2.5590 C.ar  300  INH300      0.1120
     11  C10       46.2680   13.5430    2.5480 C.ar  300  INH300      0.0640
     12 Br1        47.5190   13.1060    3.8970 Br    300  INH300     -0.0470
     13  C13       43.7890   16.0800    1.0800 C.2   300  INH300      0.1860
     14  O3        43.1580   15.9270   -0.0120 O.2   300  INH300     -0.6460
     15  O2        43.7430   17.0870    1.8460 O.3   300  INH300     -0.7720
     16  H         44.4750   17.6680    1.9010 H     300  INH300      0.1670
     17  O4        45.7540   15.7790    3.4760 O.3   300  INH300     -0.3380
     18  C14       46.9240   16.5890    3.2890 C.3   300  INH300      0.2850
     19  C15       47.4050   17.0120    4.6850 C.2   300  INH300      0.1640
     20  O6        46.5130   17.0200    5.5800 O.2   300  INH300     -0.6480
     21  O5        48.6290   17.3130    4.7900 O.3   300  INH300     -0.7750
     22  H         48.9390   18.1350    4.4660 H     300  INH300      0.1670
     23  N2        46.5150    9.2230   -1.9220 N.am  300  INH300     -0.2950
     24  C2        47.6340    9.1780   -2.7920 C.2   300  INH300      0.3220
     25  O1        47.5760    8.8490   -3.9780 O.2   300  INH300     -0.2470
     26  N1        48.8390    9.5460   -2.1970 N.am  300  INH300     -0.3470
     27  C1        50.0870    9.5650   -2.9250 C.3   300  INH300      0.1510
     28  H7        48.8420    9.8070   -1.2300 H     300  INH300      0.1630
     29  C16       45.1640    8.8120   -2.4110 C.3   300  INH300      0.0950
     30  C21       44.2430    8.2810   -1.3030 C.3   300  INH300      0.0260
     31  C20       42.9310    7.7570   -1.8870 C.3   300  INH300      0.0020
     32  C19       42.2110    8.8170   -2.7180 C.3   300  INH300      0.0000
     33  C18       43.0200   10.1060   -2.8540 C.3   300  INH300      0.0020
     34  C17       44.4620    9.8590   -3.2970 C.3   300  INH300      0.0260
@<TRIPOS>BOND
     1    25    24    2
     2    34    33    1
     3    34    29    1
     4    27    26    1
     5    33    32    1
     6    24    26   am
     7    24    23   am
     8    32    31    1
     9    29    23    1
    10    29    30    1
    11    26    28    1
    12    23     1    1
    13    31    30    1
    14     1     6   ar
    15     1     2   ar
    16     6     5   ar
    17    14    13    2
    18     2     3   ar
    19     8     9   ar
    20     8     7   ar
    21    13     9    1
    22    13    15    1
    23     5     7    1
    24     5     4   ar
    25     9    10   ar
    26     7    11   ar
    27     3     4   ar
    28    15    16    1
    29    11    10   ar
    30    11    12    1
    31    10    17    1
    32    18    17    1
    33    18    19    1
    34    22    21    1
    35    19    21    1
    36    19    20    2
