@<TRIPOS>MOLECULE
/tmp/ewbell/vina_2zmm_2zmm_lig/vina/vina1.pdbqt
 34 36 0 0 0
SMALL
GASTEIGER

@<TRIPOS>ATOM
      1  C3        45.0990   11.3480   -1.9200 C.ar  300  INH300      0.0400
      2  C4        44.6370   10.0870   -1.5190 C.ar  300  INH300      0.0300
      3  C5        44.3630    9.8390   -0.1730 C.ar  300  INH300      0.0030
      4  C6        44.5490   10.8350    0.7860 C.ar  300  INH300      0.0130
      5  C7        45.0060   12.0990    0.4040 C.ar  300  INH300     -0.0150
      6  C8        45.2790   12.3450   -0.9460 C.ar  300  INH300      0.0420
      7  C9        45.1970   13.1540    1.3990 C.ar  300  INH300      0.0360
      8  S1        44.1390   14.5020    1.3500 S.2   300  INH300     -0.0790
      9  C12       44.9170   15.2520    2.6720 C.ar  300  INH300      0.1140
     10  C11       45.9580   14.4910    3.1720 C.ar  300  INH300      0.1120
     11  C10       46.1310   13.3050    2.4020 C.ar  300  INH300      0.0640
     12 Br1        47.4840   12.0520    2.8190 Br    300  INH300     -0.0470
     13  C13       44.3990   16.6380    3.1940 C.2   300  INH300      0.1860
     14  O3        44.1610   16.6810    4.4400 O.2   300  INH300     -0.6460
     15  O2        44.2490   17.5800    2.3620 O.3   300  INH300     -0.7720
     16  H         44.0700   18.4480    2.6630 H     300  INH300      0.1670
     17  O4        46.7440   14.8660    4.2230 O.3   300  INH300     -0.3380
     18  C14       47.8540   15.7150    3.8960 C.3   300  INH300      0.2850
     19  C15       47.7620   16.9450    4.8100 C.2   300  INH300      0.1640
     20  O6        48.7040   17.7780    4.6860 O.2   300  INH300     -0.6480
     21  O5        46.7670   16.9920    5.5900 O.3   300  INH300     -0.7750
     22  H         46.5640   17.7860    6.0430 H     300  INH300      0.1670
     23  N2        45.3920   11.6510   -3.2970 N.am  300  INH300     -0.2950
     24  C2        44.3630   11.7360   -4.2700 C.2   300  INH300      0.3220
     25  O1        44.5580   11.9790   -5.4630 O.2   300  INH300     -0.2470
     26  N1        43.0810   11.5170   -3.7720 N.am  300  INH300     -0.3470
     27  C1        41.9070   11.5610   -4.6140 C.3   300  INH300      0.1510
     28  H7        42.9670   11.3230   -2.7970 H     300  INH300      0.1630
     29  C16       46.8130   11.9070   -3.6790 C.3   300  INH300      0.0950
     30  C21       47.1920   13.3950   -3.6780 C.3   300  INH300      0.0260
     31  C20       48.6140   13.5970   -4.2020 C.3   300  INH300      0.0020
     32  C19       49.6370   12.7840   -3.4110 C.3   300  INH300      0.0000
     33  C18       48.9860   11.8870   -2.3590 C.3   300  INH300      0.0020
     34  C17       47.8410   11.0460   -2.9210 C.3   300  INH300      0.0260
@<TRIPOS>BOND
     1    25    24    2
     2    27    26    1
     3    24    26   am
     4    24    23   am
     5    31    30    1
     6    31    32    1
     7    26    28    1
     8    29    30    1
     9    29    23    1
    10    29    34    1
    11    32    33    1
    12    23     1    1
    13    34    33    1
    14     1     2   ar
    15     1     6   ar
    16     2     3   ar
    17     6     5   ar
    18     3     4   ar
    19     5     4   ar
    20     5     7    1
    21     8     7   ar
    22     8     9   ar
    23     7    11   ar
    24    15    16    1
    25    15    13    1
    26    11    12    1
    27    11    10   ar
    28     9    10   ar
    29     9    13    1
    30    10    17    1
    31    13    14    2
    32    18    17    1
    33    18    19    1
    34    20    19    2
    35    19    21    1
    36    21    22    1
