@<TRIPOS>MOLECULE
./ligand/1ha2_lig.pdb
 41 43 0 0 0
SMALL
GASTEIGER

@<TRIPOS>ATOM
      1  C1        34.9090   14.5830   10.0090 C.ar  585  INH585      0.0593
      2  C2        30.9540   14.2050    9.9500 C.3   585  INH585      0.0218
      3  H1        30.3600   15.0080    9.5980 H     585  INH585      0.0401
      4  C3        30.6520   13.9580   11.4440 C.3   585  INH585     -0.0159
      5  H2        30.9380   12.9720   11.7040 H     585  INH585      0.0299
      6  H3        31.1950   14.6500   12.0330 H     585  INH585      0.0299
      7  C4        29.1960   14.1110   11.8010 C.3   585  INH585      0.0533
      8  H4        29.1010   14.7790   12.6170 H     585  INH585      0.0591
      9  C5        28.5330   12.8140   12.2000 C.3   585  INH585     -0.0389
     10  H5        29.0260   12.4110   13.0460 H     585  INH585      0.0254
     11  H6        28.5910   12.1260   11.3970 H     585  INH585      0.0254
     12  H7        27.5170   12.9950   12.4360 H     585  INH585      0.0254
     13  C6        30.6550   12.9760    9.0600 C.ar  585  INH585     -0.0395
     14  C7        30.0630   13.1400    7.7810 C.ar  585  INH585     -0.0580
     15  H8        29.8090   14.1250    7.4280 H     585  INH585      0.0620
     16  C8        29.7940   12.0310    6.9470 C.ar  585  INH585     -0.0615
     17  H9        29.3440   12.1810    5.9800 H     585  INH585      0.0618
     18  C9        30.1060   10.7490    7.3670 C.ar  585  INH585     -0.0617
     19  H10       29.9000    9.9080    6.7270 H     585  INH585      0.0618
     20  C10       30.6820   10.5580    8.6090 C.ar  585  INH585     -0.0615
     21  H11       30.9250    9.5630    8.9430 H     585  INH585      0.0618
     22  C11       32.5590   15.8520    8.9350 C.ar  585  INH585      0.3446
     23  C12       30.9610   11.6550    9.4590 C.ar  585  INH585     -0.0580
     24  H12       31.4120   11.4740   10.4200 H     585  INH585      0.0620
     25  C13       32.4000   14.6750    9.7540 C.ar  585  INH585      0.0863
     26  C14       33.5480   14.0560   10.2810 C.ar  585  INH585      0.1381
     27  C15       36.1310   14.0200   10.4900 C.ar  585  INH585     -0.0475
     28  H13       36.1110   13.1430   11.1140 H     585  INH585      0.0626
     29  C16       37.3700   14.6090   10.1510 C.ar  585  INH585     -0.0609
     30  H14       38.2880   14.1790   10.5150 H     585  INH585      0.0618
     31  C17       37.4010   15.7610    9.3350 C.ar  585  INH585     -0.0582
     32  H15       38.3440   16.2120    9.0750 H     585  INH585      0.0619
     33  C18       36.2210   16.3390    8.8490 C.ar  585  INH585     -0.0185
     34  H16       36.2680   17.2180    8.2280 H     585  INH585      0.0654
     35  C19       34.9880   15.7450    9.1910 C.ar  585  INH585      0.1426
     36  O1        33.8360   16.3420    8.6850 O.2   585  INH585     -0.4217
     37  O2        31.6570   16.4730    8.4240 O.2   585  INH585     -0.2447
     38  O3        28.5510   14.7000   10.7200 O.3   585  INH585     -0.3920
     39  H17       27.6120   14.8090   10.9250 H     585  INH585      0.2098
     40  O4        33.5500   12.9470   11.0640 O.3   585  INH585     -0.5055
     41  H18       32.6410   12.6490   11.2030 H     585  INH585      0.2922
@<TRIPOS>BOND
     1     1    35   ar
     2     1    27   ar
     3     1    26   ar
     4     2     3    1
     5     2    25    1
     6     2    13    1
     7     2     4    1
     8     4     5    1
     9     4     6    1
    10     4     7    1
    11     7     8    1
    12     7    38    1
    13     7     9    1
    14     9    10    1
    15     9    11    1
    16     9    12    1
    17    13    23   ar
    18    13    14   ar
    19    14    15    1
    20    14    16   ar
    21    16    17    1
    22    16    18   ar
    23    18    19    1
    24    18    20   ar
    25    20    21    1
    26    20    23   ar
    27    22    25   ar
    28    22    37    2
    29    22    36   ar
    30    23    24    1
    31    25    26   ar
    32    26    40    1
    33    27    28    1
    34    27    29   ar
    35    29    30    1
    36    29    31   ar
    37    31    32    1
    38    31    33   ar
    39    33    35   ar
    40    33    34    1
    41    35    36   ar
    42    38    39    1
    43    40    41    1
