@<TRIPOS>MOLECULE
/tmp/ewbell/vina_1ha2_1ha2_lig/vina/vina1.pdbqt
 25 27 0 0 0
SMALL
GASTEIGER

@<TRIPOS>ATOM
      1  C1        34.9880   14.8290    9.8720 C.ar  585  INH585      0.0320
      2  C11       32.6590   16.1160    8.7730 C.ar  585  INH585      0.2980
      3  C13       32.4810   14.9570    9.6130 C.ar  585  INH585      0.0600
      4  C14       33.6180   14.3290   10.1520 C.ar  585  INH585      0.0910
      5  C15       36.2010   14.2560   10.3640 C.ar  585  INH585      0.0170
      6  C16       37.4480   14.8190   10.0150 C.ar  585  INH585      0.0010
      7  C17       37.4990   15.9550    9.1790 C.ar  585  INH585      0.0030
      8  C18       36.3280   16.5420    8.6820 C.ar  585  INH585      0.0380
      9  C19       35.0860   15.9750    9.0330 C.ar  585  INH585      0.0920
     10  O1        33.9440   16.5810    8.5150 O.2   585  INH585     -0.2740
     11  O2        31.7670   16.7420    8.2490 O.2   585  INH585     -0.2590
     12  C2        31.0270   14.5130    9.8160 C.3   585  INH585      0.0630
     13  C6        30.6380   13.4300    8.7830 C.ar  585  INH585     -0.0490
     14  C12       31.3240   12.1990    8.6760 C.ar  585  INH585      0.0080
     15  C10       30.9440   11.2390    7.7080 C.ar  585  INH585      0.0010
     16  C9        29.8950   11.4800    6.8400 C.ar  585  INH585      0.0000
     17  C8        29.2020   12.6770    6.9200 C.ar  585  INH585      0.0010
     18  C7        29.5640   13.6490    7.8810 C.ar  585  INH585      0.0080
     19  C3        30.7840   14.0720   11.2760 C.3   585  INH585      0.0450
     20  C4        29.4080   14.4100   11.7890 C.3   585  INH585      0.1150
     21  C5        28.4210   13.2730   11.6630 C.3   585  INH585      0.0390
     22  O3        28.9680   15.5430   11.1170 O.3   585  INH585     -0.3960
     23  H17       28.0550   15.4100   10.8250 H     585  INH585      0.2100
     24  O4        33.6020   13.2340   10.9550 O.3   585  INH585     -0.3590
     25  H18       32.7850   13.2270   11.4730 H     585  INH585      0.2170
@<TRIPOS>BOND
     1    16    17   ar
     2    16    15   ar
     3    17    18   ar
     4    15    14   ar
     5    18    13   ar
     6    11     2    2
     7    10     2   ar
     8    10     9   ar
     9    14    13   ar
    10     8     9   ar
    11     8     7   ar
    12     2     3   ar
    13    13    12    1
    14     9     1   ar
    15     7     6   ar
    16     3    12    1
    17     3     4   ar
    18    12    19    1
    19     1     4   ar
    20     1     5   ar
    21     6     5   ar
    22     4    24    1
    23    23    22    1
    24    24    25    1
    25    22    20    1
    26    19    20    1
    27    21    20    1
