@<TRIPOS>MOLECULE
/tmp/ewbell/vina_1ha2_1ha2_lig/vina/vina5.pdbqt
 25 27 0 0 0
SMALL
GASTEIGER

@<TRIPOS>ATOM
      1  C1        29.3450   13.0020   12.1920 C.ar  585  INH585      0.0320
      2  C11       29.1920   14.8280    9.9730 C.ar  585  INH585      0.2980
      3  C13       30.1420   13.7440    9.9160 C.ar  585  INH585      0.0600
      4  C14       30.2160   12.8510   11.0000 C.ar  585  INH585      0.0910
      5  C15       29.3530   12.1540   13.3430 C.ar  585  INH585      0.0170
      6  C16       28.4810   12.4110   14.4240 C.ar  585  INH585      0.0010
      7  C17       27.5950   13.5080   14.3680 C.ar  585  INH585      0.0030
      8  C18       27.5610   14.3570   13.2550 C.ar  585  INH585      0.0380
      9  C19       28.4350   14.0960   12.1790 C.ar  585  INH585      0.0920
     10  O1        28.3780   14.9650   11.0920 O.2   585  INH585     -0.2740
     11  O2        29.0320   15.6620    9.1120 O.2   585  INH585     -0.2590
     12  C2        31.0050   13.6960    8.6500 C.3   585  INH585      0.0630
     13  C6        32.2010   14.6700    8.7680 C.ar  585  INH585     -0.0490
     14  C12       32.3320   15.8180    7.9550 C.ar  585  INH585      0.0080
     15  C10       33.4490   16.6770    8.0870 C.ar  585  INH585      0.0010
     16  C9        34.4420   16.4160    9.0110 C.ar  585  INH585      0.0000
     17  C8        34.3440   15.2980    9.8240 C.ar  585  INH585      0.0010
     18  C7        33.2360   14.4280    9.7100 C.ar  585  INH585      0.0080
     19  C3        31.4330   12.2480    8.3280 C.3   585  INH585      0.0450
     20  C4        30.4230   11.4850    7.5120 C.3   585  INH585      0.1150
     21  C5        29.4080   12.3690    6.8270 C.3   585  INH585      0.0390
     22  O3        29.8090   10.5600    8.3480 O.3   585  INH585     -0.3960
     23  H17       30.0880    9.6670    8.1020 H     585  INH585      0.2100
     24  O4        31.0590   11.7890   11.0840 O.3   585  INH585     -0.3590
     25  H18       31.3580   11.6870   11.9980 H     585  INH585      0.2170
@<TRIPOS>BOND
     1    21    20    1
     2    20    19    1
     3    20    22    1
     4    14    15   ar
     5    14    13   ar
     6    15    16   ar
     7    23    22    1
     8    19    12    1
     9    12    13    1
    10    12     3    1
    11    13    18   ar
    12    16    17   ar
    13    11     2    2
    14    18    17   ar
    15     3     2   ar
    16     3     4   ar
    17     2    10   ar
    18     4    24    1
    19     4     1   ar
    20    24    25    1
    21    10     9   ar
    22     9     1   ar
    23     9     8   ar
    24     1     5   ar
    25     8     7   ar
    26     5     6   ar
    27     7     6   ar
