@<TRIPOS>MOLECULE
/tmp/ewbell/vina_1ha2_1ha2_lig/vina/vina3.pdbqt
 25 27 0 0 0
SMALL
GASTEIGER

@<TRIPOS>ATOM
      1  C1        34.7710   15.6710    9.1650 C.ar  585  INH585      0.0320
      2  C11       33.3920   13.7180   10.7660 C.ar  585  INH585      0.2980
      3  C13       32.6190   14.5860    9.9110 C.ar  585  INH585      0.0600
      4  C14       33.2930   15.5400    9.1280 C.ar  585  INH585      0.0910
      5  C15       35.5430   16.6120    8.4150 C.ar  585  INH585      0.0170
      6  C16       36.9490   16.6470    8.5470 C.ar  585  INH585      0.0010
      7  C17       37.5970   15.7480    9.4210 C.ar  585  INH585      0.0030
      8  C18       36.8700   14.8120   10.1680 C.ar  585  INH585      0.0380
      9  C19       35.4660   14.7830   10.0330 C.ar  585  INH585      0.0920
     10  O1        34.7760   13.8440   10.7960 O.2   585  INH585     -0.2740
     11  O2        32.9350   12.8620   11.4870 O.2   585  INH585     -0.2590
     12  C2        31.1010   14.3790    9.9690 C.3   585  INH585      0.0630
     13  C6        30.6440   13.3900    8.8710 C.ar  585  INH585     -0.0490
     14  C12       31.3160   12.1730    8.6150 C.ar  585  INH585      0.0080
     15  C10       30.8720   11.3020    7.5920 C.ar  585  INH585      0.0010
     16  C9        29.7730   11.6170    6.8150 C.ar  585  INH585      0.0000
     17  C8        29.0930   12.8020    7.0410 C.ar  585  INH585      0.0010
     18  C7        29.5190   13.6870    8.0590 C.ar  585  INH585      0.0080
     19  C3        30.6550   13.9580   11.3860 C.3   585  INH585      0.0450
     20  C4        29.2920   14.4720   11.7690 C.3   585  INH585      0.1150
     21  C5        28.1890   13.4560   11.5830 C.3   585  INH585      0.0390
     22  O3        29.0490   15.6260   11.0360 O.3   585  INH585     -0.3960
     23  H17       29.8570   16.1570   10.9920 H     585  INH585      0.2100
     24  O4        32.6990   16.4200    8.2810 O.3   585  INH585     -0.3590
     25  H18       32.4590   17.2210    8.7670 H     585  INH585      0.2170
@<TRIPOS>BOND
     1    16    17   ar
     2    16    15   ar
     3    17    18   ar
     4    15    14   ar
     5    18    13   ar
     6    24    25    1
     7    24     4    1
     8     5     6   ar
     9     5     1   ar
    10     6     7   ar
    11    14    13   ar
    12    13    12    1
    13     4     1   ar
    14     4     3   ar
    15     1     9   ar
    16     7     8   ar
    17     3    12    1
    18     3     2   ar
    19    12    19    1
    20     9     8   ar
    21     9    10   ar
    22     2    10   ar
    23     2    11    2
    24    23    22    1
    25    22    20    1
    26    19    20    1
    27    21    20    1
