@<TRIPOS>MOLECULE
/tmp/ewbell/vina_1ha2_1ha2_lig/vina/vina4.pdbqt
 25 27 0 0 0
SMALL
GASTEIGER

@<TRIPOS>ATOM
      1  C1        21.0250    3.9180   -0.5210 C.ar  585  INH585      0.0320
      2  C11       22.2450    1.4970    0.4460 C.ar  585  INH585      0.2980
      3  C13       20.9740    1.9010    0.9950 C.ar  585  INH585      0.0600
      4  C14       20.3770    3.0830    0.5220 C.ar  585  INH585      0.0910
      5  C15       20.5030    5.1350   -1.0570 C.ar  585  INH585      0.0170
      6  C16       21.2240    5.8480   -2.0410 C.ar  585  INH585      0.0010
      7  C17       22.4640    5.3550   -2.5000 C.ar  585  INH585      0.0030
      8  C18       23.0030    4.1640   -1.9970 C.ar  585  INH585      0.0380
      9  C19       22.2790    3.4580   -1.0140 C.ar  585  INH585      0.0920
     10  O1        22.8480    2.2820   -0.5310 O.2   585  INH585     -0.2740
     11  O2        22.8610    0.5070    0.7670 O.2   585  INH585     -0.2590
     12  C2        20.4070    0.9790    2.0810 C.3   585  INH585      0.0630
     13  C6        20.9380    1.3870    3.4750 C.ar  585  INH585     -0.0490
     14  C12       21.0630    2.7370    3.8760 C.ar  585  INH585      0.0080
     15  C10       21.5650    3.0690    5.1570 C.ar  585  INH585      0.0010
     16  C9        21.9480    2.0840    6.0480 C.ar  585  INH585      0.0000
     17  C8        21.8370    0.7520    5.6860 C.ar  585  INH585      0.0010
     18  C7        21.3370    0.3980    4.4110 C.ar  585  INH585      0.0080
     19  C3        18.8660    0.9280    2.0110 C.3   585  INH585      0.0450
     20  C4        18.2750   -0.3390    2.5750 C.3   585  INH585      0.1150
     21  C5        18.2260   -1.4760    1.5810 C.3   585  INH585      0.0390
     22  O3        17.0120   -0.0390    3.0670 O.3   585  INH585     -0.3960
     23  H17       16.3650   -0.6540    2.6930 H     585  INH585      0.2100
     24  O4        19.1880    3.5840    0.9450 O.3   585  INH585     -0.3590
     25  H18       18.6410    2.8660    1.2920 H     585  INH585      0.2170
@<TRIPOS>BOND
     1     7     6   ar
     2     7     8   ar
     3     6     5   ar
     4     8     9   ar
     5     5     1   ar
     6     9    10   ar
     7     9     1   ar
     8    10     2   ar
     9     1     4   ar
    10     2    11    2
    11     2     3   ar
    12     4    24    1
    13     4     3   ar
    14    24    25    1
    15     3    12    1
    16    21    20    1
    17    19    12    1
    18    19    20    1
    19    12    13    1
    20    20    22    1
    21    23    22    1
    22    13    14   ar
    23    13    18   ar
    24    14    15   ar
    25    18    17   ar
    26    15    16   ar
    27    17    16   ar
