@<TRIPOS>MOLECULE
/tmp/ewbell/vina_1ha2_1ha2_lig/vina/vina2.pdbqt
 25 27 0 0 0
SMALL
GASTEIGER

@<TRIPOS>ATOM
      1  C1        26.7230    7.9890   11.1850 C.ar  585  INH585      0.0320
      2  C11       25.7940    9.0530   13.6930 C.ar  585  INH585      0.2980
      3  C13       26.8680    9.7290   13.0080 C.ar  585  INH585      0.0600
      4  C14       27.3220    9.2100   11.7810 C.ar  585  INH585      0.0910
      5  C15       27.1200    7.3830    9.9530 C.ar  585  INH585      0.0170
      6  C16       26.4790    6.2100    9.4970 C.ar  585  INH585      0.0010
      7  C17       25.4400    5.6340   10.2580 C.ar  585  INH585      0.0030
      8  C18       25.0250    6.2040   11.4690 C.ar  585  INH585      0.0380
      9  C19       25.6700    7.3750   11.9200 C.ar  585  INH585      0.0920
     10  O1        25.2370    7.9100   13.1300 O.2   585  INH585     -0.2740
     11  O2        25.3170    9.3940   14.7500 O.2   585  INH585     -0.2590
     12  C2        27.4260   10.9640   13.7240 C.3   585  INH585      0.0630
     13  C6        28.9470   10.8150   13.9630 C.ar  585  INH585     -0.0490
     14  C12       29.5050    9.7110   14.6470 C.ar  585  INH585      0.0080
     15  C10       30.9020    9.6190   14.8560 C.ar  585  INH585      0.0010
     16  C9        31.7570   10.6050   14.4000 C.ar  585  INH585      0.0000
     17  C8        31.2410   11.6990   13.7250 C.ar  585  INH585      0.0010
     18  C7        29.8490   11.8100   13.5050 C.ar  585  INH585      0.0080
     19  C3        27.0570   12.2560   12.9630 C.3   585  INH585      0.0450
     20  C4        25.5830   12.5660   12.9750 C.3   585  INH585      0.1150
     21  C5        25.2420   13.9040   12.3600 C.3   585  INH585      0.0390
     22  O3        25.1400   12.4830   14.2890 O.3   585  INH585     -0.3960
     23  H17       24.6330   11.6680   14.4080 H     585  INH585      0.2100
     24  O4        28.3200    9.7390   11.0280 O.3   585  INH585     -0.3590
     25  H18       29.1710    9.5600   11.4510 H     585  INH585      0.2170
@<TRIPOS>BOND
     1     6     5   ar
     2     6     7   ar
     3     5     1   ar
     4     7     8   ar
     5    24    25    1
     6    24     4    1
     7     1     4   ar
     8     1     9   ar
     9     8     9   ar
    10     4     3   ar
    11     9    10   ar
    12    21    20    1
    13    19    20    1
    14    19    12    1
    15    20    22    1
    16     3     2   ar
    17     3    12    1
    18    10     2   ar
    19    18    17   ar
    20    18    13   ar
    21     2    11    2
    22    12    13    1
    23    17    16   ar
    24    13    14   ar
    25    22    23    1
    26    16    15   ar
    27    14    15   ar
