@<TRIPOS>MOLECULE
./ligand/3f4j_lig.pdb
 10 9 0 0 0
SMALL
GASTEIGER

@<TRIPOS>ATOM
      1  N1        25.8820   32.3850   19.1940 N.4   516  INH516      0.2267
      2  C1        27.2030   31.7830   19.1630 C.3   516  INH516      0.0680
      3  C2        27.2440   30.4470   18.4510 C.2   516  INH516      0.3996
      4  O1        26.2090   29.8990   18.0810 O.co2 516  INH516     -0.2403
      5  O2        28.3070   29.8590   18.2300 O.co2 516  INH516     -0.2403
      6  H1        25.2270   31.7820   18.7220 H     516  INH516      0.2000
      7  H2        27.8880   32.4730   18.6480 H     516  INH516      0.0933
      8  H3        27.5420   31.6360   20.1990 H     516  INH516      0.0933
      9  H4        25.9090   33.2790   18.7300 H     516  INH516      0.2000
     10  H5        25.5900   32.5140   20.1630 H     516  INH516      0.2000
@<TRIPOS>BOND
     1     1    10    1
     2     1     9    1
     3     1     6    1
     4     1     2    1
     5     2     8    1
     6     2     7    1
     7     2     3    1
     8     3     5   ar
     9     3     4   ar
