@<TRIPOS>MOLECULE
/tmp/ewbell/vina_3f4j_3f4j_lig/vina/vina1.pdbqt
 9 8 0 0 0
SMALL
GASTEIGER

@<TRIPOS>ATOM
      1  C1        27.1260   31.6080   19.2640 C.3   516  INH516      0.3390
      2  N1        25.8540   32.3010   19.1740 N.4   516  INH516     -0.0700
      3  H5        25.3040   31.9040   18.4120 H     516  INH516      0.2740
      4  H4        25.3510   32.1950   20.0410 H     516  INH516      0.2740
      5  H1        26.0160   33.2800   18.9980 H     516  INH516      0.2740
      6  C2        27.2240   30.3990   18.3580 C.2   516  INH516      0.1650
      7  O2        28.1310   29.5700   18.4720 O.2   516  INH516     -0.6490
      8  O1        26.3860   30.2000   17.4820 O.3   516  INH516     -0.7750
      9  H         26.6490   29.8670   16.6470 H     516  INH516      0.1670
@<TRIPOS>BOND
     1     9     8    1
     2     8     6    1
     3     6     7    2
     4     6     1    1
     5     3     2    1
     6     5     2    1
     7     2     1    1
     8     2     4    1
