@<TRIPOS>MOLECULE
/tmp/ewbell/vina_3f4j_3f4j_lig/vina/vina5.pdbqt
 9 8 0 0 0
SMALL
GASTEIGER

@<TRIPOS>ATOM
      1  C1        19.4420   21.3610   26.2980 C.3   516  INH516      0.3390
      2  N1        19.6130   20.1500   25.5140 N.4   516  INH516     -0.0700
      3  H5        19.4330   20.3540   24.5310 H     516  INH516      0.2740
      4  H4        20.5560   19.8120   25.6190 H     516  INH516      0.2740
      5  H1        18.9670   19.4480   25.8360 H     516  INH516      0.2740
      6  C2        19.8830   22.6170   25.5770 C.2   516  INH516      0.1650
      7  O2        20.2750   23.6150   26.1890 O.2   516  INH516     -0.6490
      8  O1        19.8760   22.6740   24.3500 O.3   516  INH516     -0.7750
      9  H         19.5520   23.4400   23.9190 H     516  INH516      0.1670
@<TRIPOS>BOND
     1     9     8    1
     2     8     6    1
     3     3     2    1
     4     2     4    1
     5     2     5    1
     6     2     1    1
     7     6     7    2
     8     6     1    1
