@<TRIPOS>MOLECULE
/tmp/ewbell/vina_3f4j_3f4j_lig/vina/vina3.pdbqt
 9 8 0 0 0
SMALL
GASTEIGER

@<TRIPOS>ATOM
      1  C1        27.1060   30.4090   18.5810 C.3   516  INH516      0.3390
      2  N1        25.6590   30.3840   18.4550 N.4   516  INH516     -0.0700
      3  H5        25.4070   30.1960   17.4840 H     516  INH516      0.2740
      4  H4        25.2820   29.6610   19.0460 H     516  INH516      0.2740
      5  H1        25.2830   31.2760   18.7340 H     516  INH516      0.2740
      6  C2        27.6420   31.7050   19.1520 C.2   516  INH516      0.1650
      7  O2        28.6560   31.7360   19.8560 O.2   516  INH516     -0.6490
      8  O1        27.0850   32.7740   18.9180 O.3   516  INH516     -0.7750
      9  H         27.2010   33.1910   18.0870 H     516  INH516      0.1670
@<TRIPOS>BOND
     1     3     2    1
     2     9     8    1
     3     2     1    1
     4     2     5    1
     5     2     4    1
     6     1     6    1
     7     8     6    1
     8     6     7    2
