@<TRIPOS>MOLECULE
/tmp/ewbell/vina_3f4j_3f4j_lig/vina/vina4.pdbqt
 9 8 0 0 0
SMALL
GASTEIGER

@<TRIPOS>ATOM
      1  C1        27.1920   31.5080   19.4630 C.3   516  INH516      0.3390
      2  N1        25.9850   32.2390   19.1190 N.4   516  INH516     -0.0700
      3  H5        25.5670   32.6230   19.9670 H     516  INH516      0.2740
      4  H4        26.2160   32.9900   18.4890 H     516  INH516      0.2740
      5  H1        25.3310   31.6160   18.6730 H     516  INH516      0.2740
      6  C2        28.1510   32.2950   20.3320 C.2   516  INH516      0.1650
      7  O2        28.7470   31.7760   21.2800 O.2   516  INH516     -0.6490
      8  O1        28.3740   33.4810   20.1060 O.3   516  INH516     -0.7750
      9  H         28.4140   34.0940   20.8140 H     516  INH516      0.1670
@<TRIPOS>BOND
     1     4     2    1
     2     5     2    1
     3     2     1    1
     4     2     3    1
     5     1     6    1
     6     8     6    1
     7     8     9    1
     8     6     7    2
