@<TRIPOS>MOLECULE
/tmp/ewbell/vina_3f4j_3f4j_lig/vina/vina2.pdbqt
 9 8 0 0 0
SMALL
GASTEIGER

@<TRIPOS>ATOM
      1  C1        28.2400   32.3510   20.4640 C.3   516  INH516      0.3390
      2  N1        28.5920   33.7530   20.3340 N.4   516  INH516     -0.0700
      3  H5        27.9970   34.1890   19.6290 H     516  INH516      0.2740
      4  H4        28.4580   34.2170   21.2190 H     516  INH516      0.2740
      5  H1        29.5570   33.8330   20.0560 H     516  INH516      0.2740
      6  C2        27.4430   31.8140   19.2930 C.2   516  INH516      0.1650
      7  O2        27.9550   31.0900   18.4350 O.2   516  INH516     -0.6490
      8  O1        26.2500   32.0780   19.1710 O.3   516  INH516     -0.7750
      9  H         25.8650   32.1230   18.3190 H     516  INH516      0.1670
@<TRIPOS>BOND
     1     9     8    1
     2     7     6    2
     3     8     6    1
     4     6     1    1
     5     3     2    1
     6     5     2    1
     7     2     1    1
     8     2     4    1
