@<TRIPOS>MOLECULE
./ligand/2d2v_lig.pdb
 45 46 0 0 0
SMALL
GASTEIGER

@<TRIPOS>ATOM
      1  C1        45.9320    2.5020   95.2100 C.3   248  INH248      0.1884
      2  C2        45.0380    2.4090   93.9550 C.3   248  INH248      0.1341
      3  C3        45.3490    1.1020   93.1930 C.3   248  INH248      0.1141
      4  C4        46.8600    1.2160   92.7690 C.3   248  INH248      0.1119
      5  C5        47.7290    1.2620   94.0570 C.3   248  INH248      0.1130
      6  C6        49.2470    1.3870   93.8740 C.3   248  INH248      0.0730
      7  O1        45.5980    1.4210   96.1210 O.3   248  INH248     -0.3401
      8  O2        43.7100    2.5120   94.4390 O.3   248  INH248     -0.3841
      9  O3        44.5130    1.0640   92.0670 O.3   248  INH248     -0.3864
     10  O4        47.2660    0.1150   92.0650 O.3   248  INH248     -0.3865
     11  O5        47.3370    2.3910   94.8880 O.3   248  INH248     -0.3405
     12  O6        49.5320    2.5250   93.0890 O.3   248  INH248     -0.3924
     13  C7        45.0120    0.3800  100.2370 C.3   248  INH248      0.1854
     14  C8        43.9090    1.0620   99.3900 C.3   248  INH248      0.1339
     15  C9        43.9660    0.8820   97.8480 C.3   248  INH248      0.1144
     16  C10       45.3760    1.4970   97.5170 C.3   248  INH248      0.1184
     17  C11       46.5170    0.7270   98.3390 C.3   248  INH248      0.1134
     18  C12       48.0530    1.1800   98.2100 C.3   248  INH248      0.0730
     19  O7        44.8620   -0.6940  100.1970 O.3   248  INH248     -0.3649
     20  O8        42.6560    0.5980   99.7870 O.3   248  INH248     -0.3841
     21  O9        42.8530    1.5740   97.1560 O.3   248  INH248     -0.3864
     22  O10       46.3350    0.7830   99.8120 O.3   248  INH248     -0.3407
     23  O11       47.9370    2.6700   98.3760 O.3   248  INH248     -0.3924
     24  H1        45.7510    3.4690   95.7020 H     248  INH248      0.0938
     25  H2        45.2410    3.2550   93.2820 H     248  INH248      0.0671
     26  H3        45.1850    0.2160   93.8240 H     248  INH248      0.0648
     27  H4        47.0090    2.1250   92.1670 H     248  INH248      0.0647
     28  H5        47.5350    0.3280   94.6050 H     248  INH248      0.0647
     29  H6        49.6310    0.4880   93.3700 H     248  INH248      0.0584
     30  H7        49.7280    1.4900   94.8580 H     248  INH248      0.0584
     31  H8        43.5360    1.7960   95.0390 H     248  INH248      0.2101
     32  H9        43.6080    0.9950   92.3480 H     248  INH248      0.2100
     33  H10       47.3220    0.3330   91.1420 H     248  INH248      0.2100
     34  H11       49.5710    2.2750   92.1730 H     248  INH248      0.2095
     35  H12       44.8910    0.7010  101.2820 H     248  INH248      0.0935
     36  H13       43.9740    2.1400   99.5970 H     248  INH248      0.0671
     37  H14       43.9350   -0.1840   97.5780 H     248  INH248      0.0648
     38  H15       45.3840    2.5550   97.8170 H     248  INH248      0.0651
     39  H16       46.4510   -0.3210   98.0100 H     248  INH248      0.0647
     40  H17       48.4690    0.9160   97.2270 H     248  INH248      0.0584
     41  H18       48.6720    0.7340   99.0020 H     248  INH248      0.0584
     42  H19       43.9810   -0.9000  100.4850 H     248  INH248      0.2126
     43  H20       41.9800    1.1080   99.3570 H     248  INH248      0.2101
     44  H21       42.9800    1.5150   96.2160 H     248  INH248      0.2100
     45  H22       47.5560    2.8640   99.2240 H     248  INH248      0.2095
@<TRIPOS>BOND
     1     1     7    1
     2     1    24    1
     3     1    11    1
     4     1     2    1
     5     2    25    1
     6     2     8    1
     7     2     3    1
     8     3    26    1
     9     3     9    1
    10     3     4    1
    11     4    27    1
    12     4    10    1
    13     4     5    1
    14     5    28    1
    15     5    11    1
    16     5     6    1
    17     6    30    1
    18     6    29    1
    19     6    12    1
    20     7    16    1
    21     8    31    1
    22     9    32    1
    23    10    33    1
    24    12    34    1
    25    13    35    1
    26    13    22    1
    27    13    19    1
    28    13    14    1
    29    14    36    1
    30    14    20    1
    31    14    15    1
    32    15    37    1
    33    15    21    1
    34    15    16    1
    35    16    38    1
    36    16    17    1
    37    17    39    1
    38    17    22    1
    39    17    18    1
    40    18    41    1
    41    18    40    1
    42    18    23    1
    43    19    42    1
    44    20    43    1
    45    21    44    1
    46    23    45    1
