@<TRIPOS>MOLECULE
/tmp/ewbell/vina_2d2v_2d2v_lig/vina/vina3.pdbqt
 31 32 0 0 0
SMALL
GASTEIGER

@<TRIPOS>ATOM
      1  O1        47.7200    2.8930   95.9540 O.3   248  INH248     -0.3480
      2  C1        47.3760    3.0760   97.3540 C.3   248  INH248      0.2920
      3  O5        46.9420    1.7990   97.8730 O.3   248  INH248     -0.3480
      4  C5        47.9630    0.7720   98.0200 C.3   248  INH248      0.1790
      5  C4        49.1650    1.3230   98.8390 C.3   248  INH248      0.1800
      6  C3        49.7390    2.5830   98.0910 C.3   248  INH248      0.1830
      7  C2        48.6010    3.6280   98.1140 C.3   248  INH248      0.2040
      8  C6        47.2400   -0.4590   98.5810 C.3   248  INH248      0.1980
      9  O6        47.8940   -1.6290   98.1380 O.3   248  INH248     -0.3980
     10  H11       47.2550   -2.2240   97.7620 H     248  INH248      0.2090
     11  O4        50.0880    0.3160   98.9020 O.3   248  INH248     -0.3900
     12  H10       50.8440    0.5460   98.3750 H     248  INH248      0.2100
     13  O3        50.8250    3.1300   98.7900 O.3   248  INH248     -0.3900
     14  H9        50.6280    4.0290   99.0250 H     248  INH248      0.2100
     15  O2        48.9090    4.8550   97.4780 O.3   248  INH248     -0.3880
     16  H8        48.1260    5.3910   97.4290 H     248  INH248      0.2100
     17  C10       47.2900    1.8660   95.0800 C.3   248  INH248      0.1870
     18  C9        45.8050    2.1490   94.6450 C.3   248  INH248      0.1830
     19  C8        45.5230    0.9360   93.7160 C.3   248  INH248      0.2040
     20  C7        46.4280    0.7530   92.4730 C.3   248  INH248      0.2880
     21  O10       47.8280    0.6920   92.8380 O.3   248  INH248     -0.3490
     22  C11       48.2310    1.7620   93.7860 C.3   248  INH248      0.1800
     23  O9        44.8660    2.2150   95.7900 O.3   248  INH248     -0.3900
     24  H21       45.3030    2.6140   96.5340 H     248  INH248      0.2100
     25  O8        44.1930    1.0570   93.3170 O.3   248  INH248     -0.3880
     26  H20       44.1100    0.7860   92.4110 H     248  INH248      0.2100
     27  O7        46.2090    1.5480   91.7670 O.3   248  INH248     -0.3690
     28  H19       46.6480    2.3440   92.0420 H     248  INH248      0.2120
     29  C12       49.7970    1.4420   93.9470 C.3   248  INH248      0.1980
     30  O11       49.8140    0.7010   95.2550 O.3   248  INH248     -0.3980
     31  H22       50.2540    1.2290   95.9110 H     248  INH248      0.2090
@<TRIPOS>BOND
     1    27    28    1
     2    27    20    1
     3    26    25    1
     4    20    21    1
     5    20    19    1
     6    21    22    1
     7    25    19    1
     8    19    18    1
     9    22    29    1
    10    22    17    1
    11    29    30    1
    12    18    17    1
    13    18    23    1
    14    17     1    1
    15    30    31    1
    16    23    24    1
    17     1     2    1
    18     2     3    1
    19     2     7    1
    20    16    15    1
    21    15     7    1
    22    10     9    1
    23     3     4    1
    24     4     8    1
    25     4     5    1
    26     6     7    1
    27     6    13    1
    28     6     5    1
    29     9     8    1
    30    12    11    1
    31    13    14    1
    32     5    11    1
