@<TRIPOS>MOLECULE
/tmp/ewbell/vina_2d2v_2d2v_lig/vina/vina4.pdbqt
 31 32 0 0 0
SMALL
GASTEIGER

@<TRIPOS>ATOM
      1  O1        47.6390    1.7590   97.2280 O.3   248  INH248     -0.3480
      2  C1        47.4560    2.6300   98.3760 C.3   248  INH248      0.2920
      3  O5        46.9010    1.8360   99.4490 O.3   248  INH248     -0.3480
      4  C5        47.7810    0.8450  100.0510 C.3   248  INH248      0.1790
      5  C4        49.1190    1.5090  100.4870 C.3   248  INH248      0.1800
      6  C3        49.7880    2.1560   99.2190 C.3   248  INH248      0.1830
      7  C2        48.8120    3.2620   98.7600 C.3   248  INH248      0.2040
      8  C6        46.9520    0.1600  101.1440 C.3   248  INH248      0.1980
      9  O6        47.5790    0.3470  102.3950 O.3   248  INH248     -0.3980
     10  H11       48.1950    1.0690  102.3340 H     248  INH248      0.2090
     11  O4        49.8960    0.5110  101.0080 O.3   248  INH248     -0.3900
     12  H10       50.4600    0.1610  100.3270 H     248  INH248      0.2100
     13  O3        51.0000    2.7790   99.5540 O.3   248  INH248     -0.3900
     14  H9        51.5910    2.1380   99.9300 H     248  INH248      0.2100
     15  O2        49.2240    3.9780   97.6100 O.3   248  INH248     -0.3880
     16  H8        48.5320    4.5710   97.3410 H     248  INH248      0.2100
     17  C10       47.7440    2.1270   95.8650 C.3   248  INH248      0.1870
     18  C9        48.9220    1.3200   95.2040 C.3   248  INH248      0.1830
     19  C8        48.8800    1.8590   93.7470 C.3   248  INH248      0.2040
     20  C7        47.5700    1.6650   92.9440 C.3   248  INH248      0.2880
     21  O10       46.4320    2.2300   93.6370 O.3   248  INH248     -0.3490
     22  C11       46.3780    1.8530   95.0730 C.3   248  INH248      0.1800
     23  O9        50.2300    1.5590   95.8580 O.3   248  INH248     -0.3900
     24  H21       50.6470    2.3170   95.4640 H     248  INH248      0.2100
     25  O8        49.9380    1.2440   93.0780 O.3   248  INH248     -0.3880
     26  H20       50.0450    0.3590   93.4040 H     248  INH248      0.2100
     27  O7        47.4520    0.6090   92.7260 O.3   248  INH248     -0.3690
     28  H19       46.7200    0.2640   93.2220 H     248  INH248      0.2120
     29  C12       45.0200    2.5850   95.5230 C.3   248  INH248      0.1980
     30  O11       44.3130    2.7320   94.2030 O.3   248  INH248     -0.3980
     31  H22       44.6660    2.1030   93.5850 H     248  INH248      0.2090
@<TRIPOS>BOND
     1    27    20    1
     2    27    28    1
     3    20    21    1
     4    20    19    1
     5    25    26    1
     6    25    19    1
     7    31    30    1
     8    21    22    1
     9    19    18    1
    10    30    29    1
    11    22    29    1
    12    22    17    1
    13    18    23    1
    14    18    17    1
    15    24    23    1
    16    17     1    1
    17     1     2    1
    18    16    15    1
    19    15     7    1
    20     2     7    1
    21     2     3    1
    22     7     6    1
    23     6    13    1
    24     6     5    1
    25     3     4    1
    26    13    14    1
    27     4     5    1
    28     4     8    1
    29    12    11    1
    30     5    11    1
    31     8     9    1
    32    10     9    1
