@<TRIPOS>MOLECULE
/tmp/ewbell/vina_2d2v_2d2v_lig/vina/vina1.pdbqt
 31 32 0 0 0
SMALL
GASTEIGER

@<TRIPOS>ATOM
      1  O1        48.5130    2.0630   95.7410 O.3   248  INH248     -0.3480
      2  C1        48.2270    0.9900   94.8050 C.3   248  INH248      0.2920
      3  O5        46.9410    0.4300   95.1540 O.3   248  INH248     -0.3480
      4  C5        45.7760    1.2670   94.9050 C.3   248  INH248      0.1790
      5  C4        45.7810    1.7710   93.4330 C.3   248  INH248      0.1800
      6  C3        47.1110    2.5750   93.1890 C.3   248  INH248      0.1830
      7  C2        48.2500    1.5460   93.3650 C.3   248  INH248      0.2040
      8  C6        44.5650    0.4410   95.3570 C.3   248  INH248      0.1980
      9  O6        43.8920   -0.0620   94.2230 O.3   248  INH248     -0.3980
     10  H11       42.9770    0.1930   94.2610 H     248  INH248      0.2090
     11  O4        44.6800    2.5710   93.2930 O.3   248  INH248     -0.3900
     12  H10       44.8580    3.4230   93.6730 H     248  INH248      0.2100
     13  O3        47.1750    3.0500   91.8700 O.3   248  INH248     -0.3900
     14  H9        46.2970    3.1040   91.5120 H     248  INH248      0.2100
     15  O2        49.5550    2.0690   93.1920 O.3   248  INH248     -0.3880
     16  H8        49.7380    2.6980   93.8810 H     248  INH248      0.2100
     17  C10       48.7620    1.9630   97.1310 C.3   248  INH248      0.1870
     18  C9        50.2250    1.4280   97.3540 C.3   248  INH248      0.1830
     19  C8        50.3000    1.3820   98.9050 C.3   248  INH248      0.2040
     20  C7        50.0820    2.7060   99.6770 C.3   248  INH248      0.2880
     21  O10       48.8180    3.3220   99.3320 O.3   248  INH248     -0.3490
     22  C11       48.5760    3.3740   97.8670 C.3   248  INH248      0.1800
     23  O9        50.4590    0.1010   96.7360 O.3   248  INH248     -0.3900
     24  H21       49.7180   -0.1280   96.1870 H     248  INH248      0.2100
     25  O8        51.5530    0.8560   99.2150 O.3   248  INH248     -0.3880
     26  H20       51.4450    0.0660   99.7280 H     248  INH248      0.2100
     27  O7        50.9330    3.3550   99.4960 O.3   248  INH248     -0.3690
     28  H19       50.8700    3.7200   98.6220 H     248  INH248      0.2120
     29  C12       47.1570    4.1280   97.8260 C.3   248  INH248      0.1980
     30  O11       47.3610    5.1970   98.8640 O.3   248  INH248     -0.3980
     31  H22       48.2630    5.1800   99.1610 H     248  INH248      0.2090
@<TRIPOS>BOND
     1    14    13    1
     2    13     6    1
     3     6     7    1
     4     6     5    1
     5    15     7    1
     6    15    16    1
     7    11     5    1
     8    11    12    1
     9     7     2    1
    10     5     4    1
    11     9    10    1
    12     9     8    1
    13     2     3    1
    14     2     1    1
    15     4     3    1
    16     4     8    1
    17     1    17    1
    18    24    23    1
    19    23    18    1
    20    17    18    1
    21    17    22    1
    22    18    19    1
    23    29    22    1
    24    29    30    1
    25    22    21    1
    26    28    27    1
    27    30    31    1
    28    19    25    1
    29    19    20    1
    30    25    26    1
    31    21    20    1
    32    27    20    1
