@<TRIPOS>MOLECULE
/tmp/ewbell/vina_2d2v_2d2v_lig/vina/vina5.pdbqt
 31 32 0 0 0
SMALL
GASTEIGER

@<TRIPOS>ATOM
      1  O1        47.5690    1.6410   97.3280 O.3   248  INH248     -0.3480
      2  C1        47.4300    2.5210   98.4750 C.3   248  INH248      0.2920
      3  O5        47.0820    1.7070   99.6180 O.3   248  INH248     -0.3480
      4  C5        48.1200    0.8240  100.1310 C.3   248  INH248      0.1790
      5  C4        49.4240    1.6290  100.3990 C.3   248  INH248      0.1800
      6  C3        49.8770    2.3040   99.0530 C.3   248  INH248      0.1830
      7  C2        48.7480    3.2950   98.6910 C.3   248  INH248      0.2040
      8  C6        47.4920    0.0910  101.3230 C.3   248  INH248      0.1980
      9  O6        48.3880   -0.8940  101.7910 O.3   248  INH248     -0.3980
     10  H11       47.8950   -1.6300  102.1360 H     248  INH248      0.2090
     11  O4        50.3520    0.7270  100.8440 O.3   248  INH248     -0.3900
     12  H10       49.9610    0.1710  101.5070 H     248  INH248      0.2100
     13  O3        51.0490    3.0520   99.2350 O.3   248  INH248     -0.3900
     14  H9        51.5750    3.0140   98.4450 H     248  INH248      0.2100
     15  O2        48.9540    4.0160   97.4890 O.3   248  INH248     -0.3880
     16  H8        49.5210    4.7590   97.6590 H     248  INH248      0.2100
     17  C10       46.7800    1.6120   96.1530 C.3   248  INH248      0.1870
     18  C9        47.7270    1.5480   94.8980 C.3   248  INH248      0.1830
     19  C8        46.6940    1.5300   93.7380 C.3   248  INH248      0.2040
     20  C7        45.6670    0.3720   93.7030 C.3   248  INH248      0.2880
     21  O10       44.9170    0.2880   94.9380 O.3   248  INH248     -0.3490
     22  C11       45.7760    0.3620   96.1480 C.3   248  INH248      0.1800
     23  O9        48.6560    2.6980   94.8120 O.3   248  INH248     -0.3900
     24  H21       48.5530    3.2470   95.5820 H     248  INH248      0.2100
     25  O8        47.4390    1.5350   92.5590 O.3   248  INH248     -0.3880
     26  H20       48.3580    1.6450   92.7680 H     248  INH248      0.2100
     27  O7        46.1920   -0.5470   93.4620 O.3   248  INH248     -0.3690
     28  H19       46.1620   -1.1320   94.2100 H     248  INH248      0.2120
     29  C12       44.6740    0.2030   97.3060 C.3   248  INH248      0.1980
     30  O11       45.4770   -0.4640   98.3890 O.3   248  INH248     -0.3980
     31  H22       46.3460   -0.0820   98.4160 H     248  INH248      0.2090
@<TRIPOS>BOND
     1    25    26    1
     2    25    19    1
     3    27    20    1
     4    27    28    1
     5    20    19    1
     6    20    21    1
     7    19    18    1
     8    23    18    1
     9    23    24    1
    10    18    17    1
    11    21    22    1
    12    22    17    1
    13    22    29    1
    14    17     1    1
    15    29    30    1
    16     1     2    1
    17    15    16    1
    18    15     7    1
    19    30    31    1
    20    14    13    1
    21     2     7    1
    22     2     3    1
    23     7     6    1
    24     6    13    1
    25     6     5    1
    26     3     4    1
    27     4     5    1
    28     4     8    1
    29     5    11    1
    30    11    12    1
    31     8     9    1
    32     9    10    1
