@<TRIPOS>MOLECULE
/tmp/ewbell/vina_2d2v_2d2v_lig/vina/vina2.pdbqt
 31 32 0 0 0
SMALL
GASTEIGER

@<TRIPOS>ATOM
      1  O1        47.2070    0.7440   96.6640 O.3   248  INH248     -0.3480
      2  C1        46.2740    1.7360   96.1590 C.3   248  INH248      0.2920
      3  O5        46.9320    2.4600   95.0950 O.3   248  INH248     -0.3480
      4  C5        47.1770    1.7280   93.8600 C.3   248  INH248      0.1790
      5  C4        45.8600    1.0730   93.3540 C.3   248  INH248      0.1800
      6  C3        45.3190    0.1140   94.4780 C.3   248  INH248      0.1830
      7  C2        44.9880    1.0320   95.6760 C.3   248  INH248      0.2040
      8  C6        47.8730    2.7180   92.9190 C.3   248  INH248      0.1980
      9  O6        49.2590    2.7260   93.1890 O.3   248  INH248     -0.3980
     10  H11       49.6660    1.9780   92.7670 H     248  INH248      0.2090
     11  O4        46.1820    0.3810   92.2190 O.3   248  INH248     -0.3900
     12  H10       46.8870    0.8270   91.7660 H     248  INH248      0.2100
     13  O3        44.1230   -0.5020   94.0790 O.3   248  INH248     -0.3900
     14  H9        44.1720   -0.7160   93.1550 H     248  INH248      0.2100
     15  O2        44.4850    0.3600   96.8170 O.3   248  INH248     -0.3880
     16  H8        44.1860   -0.5060   96.5680 H     248  INH248      0.2100
     17  C10       48.2070    0.9130   97.6510 C.3   248  INH248      0.1870
     18  C9        49.2840    1.9330   97.1240 C.3   248  INH248      0.1830
     19  C8        50.2740    1.9760   98.3200 C.3   248  INH248      0.2040
     20  C7        49.7260    2.4280   99.6960 C.3   248  INH248      0.2880
     21  O10       48.5970    1.6220  100.1090 O.3   248  INH248     -0.3490
     22  C11       47.5880    1.4350   99.0350 C.3   248  INH248      0.1800
     23  O9        49.9330    1.4950   95.8660 O.3   248  INH248     -0.3900
     24  H21       49.3710    1.7070   95.1290 H     248  INH248      0.2100
     25  O8        51.3150    2.8180   97.9280 O.3   248  INH248     -0.3880
     26  H20       50.9560    3.6440   97.6290 H     248  INH248      0.2100
     27  O7        49.4930    3.4870   99.6430 O.3   248  INH248     -0.3690
     28  H19       49.1060    3.6830   98.7990 H     248  INH248      0.2120
     29  C12       46.4860    0.5600   99.8090 C.3   248  INH248      0.1980
     30  O11       45.2320    1.3360   99.5150 O.3   248  INH248     -0.3980
     31  H22       44.6080    0.7710   99.0740 H     248  INH248      0.2090
@<TRIPOS>BOND
     1    12    11    1
     2    11     5    1
     3    10     9    1
     4     8     9    1
     5     8     4    1
     6    14    13    1
     7     5     4    1
     8     5     6    1
     9     4     3    1
    10    13     6    1
    11     6     7    1
    12     3     2    1
    13    24    23    1
    14     7     2    1
    15     7    15    1
    16    23    18    1
    17     2     1    1
    18    16    15    1
    19     1    17    1
    20    18    17    1
    21    18    19    1
    22    26    25    1
    23    17    22    1
    24    25    19    1
    25    19    20    1
    26    28    27    1
    27    22    29    1
    28    22    21    1
    29    31    30    1
    30    30    29    1
    31    27    20    1
    32    20    21    1
