@<TRIPOS>MOLECULE
./ligand/1ws4_lig.pdb
 27 27 0 0 0
SMALL
GASTEIGER

@<TRIPOS>ATOM
      1  C1        51.0840   54.1280   66.3810 C.3   615  INH615      0.1876
      2  C2        51.6640   55.4150   65.7840 C.3   615  INH615      0.1341
      3  C3        51.6710   56.5720   66.7820 C.3   615  INH615      0.1141
      4  C4        50.2330   56.8080   67.2470 C.3   615  INH615      0.1119
      5  C5        49.7010   55.5160   67.9130 C.3   615  INH615      0.1130
      6  C6        48.2610   55.6660   68.4270 C.3   615  INH615      0.0730
      7  C7        51.4270   52.3010   67.9180 C.3   615  INH615      0.0395
      8  O1        51.9540   53.5340   67.3700 O.3   615  INH615     -0.3520
      9  O2        52.9930   55.1490   65.3030 O.3   615  INH615     -0.3841
     10  O3        52.2070   57.7500   66.1450 O.3   615  INH615     -0.3864
     11  O4        50.2100   57.8880   68.1810 O.3   615  INH615     -0.3865
     12  O5        49.7480   54.4140   66.9400 O.3   615  INH615     -0.3405
     13  O6        47.3570   55.9400   67.3600 O.3   615  INH615     -0.3924
     14  H1        50.9650   53.4000   65.5650 H     615  INH615      0.0937
     15  H2        51.0360   55.7100   64.9300 H     615  INH615      0.0671
     16  H3        52.2980   56.3120   67.6480 H     615  INH615      0.0648
     17  H4        49.6020   57.0600   66.3820 H     615  INH615      0.0647
     18  H5        50.3520   55.2720   68.7660 H     615  INH615      0.0647
     19  H6        48.2230   56.4940   69.1500 H     615  INH615      0.0584
     20  H7        47.9580   54.7320   68.9220 H     615  INH615      0.0584
     21  H8        52.1310   51.9000   68.6610 H     615  INH615      0.0525
     22  H9        51.2910   51.5690   67.1090 H     615  INH615      0.0525
     23  H10       50.4580   52.4990   68.4000 H     615  INH615      0.0525
     24  H11       52.9680   54.4280   64.6850 H     615  INH615      0.2101
     25  H12       53.0990   57.5810   65.8650 H     615  INH615      0.2100
     26  H13       49.3180   58.0360   68.4710 H     615  INH615      0.2100
     27  H14       46.4770   56.0280   67.7060 H     615  INH615      0.2095
@<TRIPOS>BOND
     1     1    14    1
     2     1    12    1
     3     1     8    1
     4     1     2    1
     5     2    15    1
     6     2     9    1
     7     2     3    1
     8     3    16    1
     9     3    10    1
    10     3     4    1
    11     4    17    1
    12     4    11    1
    13     4     5    1
    14     5    18    1
    15     5    12    1
    16     5     6    1
    17     6    20    1
    18     6    19    1
    19     6    13    1
    20     7     8    1
    21     7    23    1
    22     7    22    1
    23     7    21    1
    24     9    24    1
    25    10    25    1
    26    11    26    1
    27    13    27    1
