@<TRIPOS>MOLECULE
/tmp/ewbell/vina_1ws4_1ws4_lig/vina/vina2.pdbqt
 17 17 0 0 0
SMALL
GASTEIGER

@<TRIPOS>ATOM
      1  C1        44.7870   61.0110   57.6050 C.3   615  INH615      0.2900
      2  C2        44.9530   59.9180   58.6670 C.3   615  INH615      0.2040
      3  C3        46.0840   58.9450   58.3350 C.3   615  INH615      0.1830
      4  C4        45.7840   58.3160   56.9730 C.3   615  INH615      0.1800
      5  C5        45.6970   59.4360   55.9090 C.3   615  INH615      0.1790
      6  O5        44.6300   60.3770   56.2810 O.3   615  INH615     -0.3490
      7  C6        45.4130   58.8920   54.5000 C.3   615  INH615      0.1980
      8  O6        44.2480   59.4910   53.9400 O.3   615  INH615     -0.3980
      9  H14       44.2430   59.3540   53.0000 H     615  INH615      0.2090
     10  O4        46.8260   57.3980   56.6380 O.3   615  INH615     -0.3900
     11  H13       46.6720   57.0490   55.7680 H     615  INH615      0.2100
     12  O3        46.1650   57.9370   59.3630 O.3   615  INH615     -0.3900
     13  H12       45.9160   58.3150   60.1980 H     615  INH615      0.2100
     14  O1        45.8760   61.9600   57.6100 O.3   615  INH615     -0.3630
     15  C7        45.8810   62.8200   56.4440 C.3   615  INH615      0.2040
     16  O2        45.1750   60.5400   59.9450 O.3   615  INH615     -0.3880
     17  H11       45.6850   61.3330   59.8280 H     615  INH615      0.2100
@<TRIPOS>BOND
     1     9     8    1
     2     8     7    1
     3     7     5    1
     4    11    10    1
     5     5     6    1
     6     5     4    1
     7     6     1    1
     8    15    14    1
     9    10     4    1
    10     4     3    1
    11     1    14    1
    12     1     2    1
    13     3     2    1
    14     3    12    1
    15     2    16    1
    16    12    13    1
    17    17    16    1
