@<TRIPOS>MOLECULE
/tmp/ewbell/vina_1ws4_1ws4_lig/vina/vina4.pdbqt
 17 17 0 0 0
SMALL
GASTEIGER

@<TRIPOS>ATOM
      1  C1        41.0030   66.5130   79.7660 C.3   615  INH615      0.2900
      2  C2        39.8540   65.7390   79.1110 C.3   615  INH615      0.2040
      3  C3        40.3440   64.5430   78.2950 C.3   615  INH615      0.1830
      4  C4        41.3080   65.0600   77.2260 C.3   615  INH615      0.1800
      5  C5        42.4950   65.7700   77.9200 C.3   615  INH615      0.1790
      6  O5        41.9860   66.8870   78.7300 O.3   615  INH615     -0.3490
      7  C6        43.5270   66.3110   76.9190 C.3   615  INH615      0.1980
      8  O6        42.9650   66.4420   75.6160 O.3   615  INH615     -0.3980
      9  H14       42.0180   66.4660   75.6810 H     615  INH615      0.2090
     10  O4        41.7800   63.9620   76.4450 O.3   615  INH615     -0.3900
     11  H13       42.6430   63.7080   76.7470 H     615  INH615      0.2100
     12  O3        39.2130   63.8800   77.6920 O.3   615  INH615     -0.3900
     13  H12       38.6540   64.5240   77.2720 H     615  INH615      0.2100
     14  O1        41.6260   65.7760   80.8430 O.3   615  INH615     -0.3630
     15  C7        41.6310   66.5040   82.0950 C.3   615  INH615      0.2040
     16  O2        38.9340   65.3150   80.1330 O.3   615  INH615     -0.3880
     17  H11       38.6110   66.0750   80.6020 H     615  INH615      0.2100
@<TRIPOS>BOND
     1     8     9    1
     2     8     7    1
     3    10    11    1
     4    10     4    1
     5     7     5    1
     6     4     5    1
     7     4     3    1
     8    13    12    1
     9    12     3    1
    10     5     6    1
    11     3     2    1
    12     6     1    1
    13     2     1    1
    14     2    16    1
    15     1    14    1
    16    16    17    1
    17    14    15    1
