@<TRIPOS>MOLECULE
/tmp/ewbell/vina_1ws4_1ws4_lig/vina/vina5.pdbqt
 17 17 0 0 0
SMALL
GASTEIGER

@<TRIPOS>ATOM
      1  C1        49.9390   55.5770   67.9700 C.3   615  INH615      0.2900
      2  C2        50.8150   56.6580   67.3270 C.3   615  INH615      0.2040
      3  C3        51.3800   56.2260   65.9750 C.3   615  INH615      0.1830
      4  C4        52.1920   54.9470   66.1850 C.3   615  INH615      0.1800
      5  C5        51.2640   53.8510   66.7640 C.3   615  INH615      0.1790
      6  O5        50.7040   54.3160   68.0420 O.3   615  INH615     -0.3490
      7  C6        51.9950   52.5200   66.9950 C.3   615  INH615      0.1980
      8  O6        53.2870   52.7290   67.5590 O.3   615  INH615     -0.3980
      9  H14       53.7510   51.9030   67.6020 H     615  INH615      0.2090
     10  O4        52.7360   54.5210   64.9350 O.3   615  INH615     -0.3900
     11  H13       52.7160   53.5730   64.8890 H     615  INH615      0.2100
     12  O3        52.2080   57.2810   65.4430 O.3   615  INH615     -0.3900
     13  H12       53.1140   56.9950   65.4270 H     615  INH615      0.2100
     14  O1        48.6840   55.3940   67.2770 O.3   615  INH615     -0.3630
     15  C7        47.5370   55.4730   68.1580 C.3   615  INH615      0.2040
     16  O2        50.0440   57.8650   67.1940 O.3   615  INH615     -0.3880
     17  H11       49.9930   58.1090   66.2780 H     615  INH615      0.2100
@<TRIPOS>BOND
     1    11    10    1
     2    10     4    1
     3    13    12    1
     4    12     3    1
     5     3     4    1
     6     3     2    1
     7     4     5    1
     8    17    16    1
     9     5     7    1
    10     5     6    1
    11     7     8    1
    12    16     2    1
    13    14     1    1
    14    14    15    1
    15     2     1    1
    16     8     9    1
    17     1     6    1
