@<TRIPOS>MOLECULE
/tmp/ewbell/vina_1ws4_1ws4_lig/vina/vina3.pdbqt
 17 17 0 0 0
SMALL
GASTEIGER

@<TRIPOS>ATOM
      1  C1        41.2120   66.0480   79.6830 C.3   615  INH615      0.2900
      2  C2        41.6090   65.8310   78.2190 C.3   615  INH615      0.2040
      3  C3        41.7420   64.3510   77.8620 C.3   615  INH615      0.1830
      4  C4        42.7880   63.7300   78.7900 C.3   615  INH615      0.1800
      5  C5        42.3230   63.8980   80.2570 C.3   615  INH615      0.1790
      6  O5        42.1630   65.3300   80.5540 O.3   615  INH615     -0.3490
      7  C6        43.3100   63.2870   81.2630 C.3   615  INH615      0.1980
      8  O6        43.1290   61.8780   81.3750 O.3   615  INH615     -0.3980
      9  H14       43.3700   61.4630   80.5560 H     615  INH615      0.2090
     10  O4        42.9350   62.3450   78.4760 O.3   615  INH615     -0.3900
     11  H13       42.2290   62.0750   77.9010 H     615  INH615      0.2100
     12  O3        42.1390   64.2260   76.4810 O.3   615  INH615     -0.3900
     13  H12       41.5020   63.6960   76.0150 H     615  INH615      0.2100
     14  O1        39.8480   65.6540   79.9530 O.3   615  INH615     -0.3630
     15  C7        39.3310   66.2150   81.1840 C.3   615  INH615      0.2040
     16  O2        40.6410   66.4740   77.3720 O.3   615  INH615     -0.3880
     17  H11       39.9820   65.8430   77.1080 H     615  INH615      0.2100
@<TRIPOS>BOND
     1    13    12    1
     2    12     3    1
     3    17    16    1
     4    16     2    1
     5     3     2    1
     6     3     4    1
     7    11    10    1
     8     2     1    1
     9    10     4    1
    10     4     5    1
    11     1    14    1
    12     1     6    1
    13    14    15    1
    14     5     6    1
    15     5     7    1
    16     9     8    1
    17     7     8    1
