@<TRIPOS>MOLECULE
/tmp/ewbell/vina_1ws4_1ws4_lig/vina/vina1.pdbqt
 17 17 0 0 0
SMALL
GASTEIGER

@<TRIPOS>ATOM
      1  C1        51.3870   54.1660   66.2100 C.3   615  INH615      0.2900
      2  C2        51.8860   55.5450   65.7640 C.3   615  INH615      0.2040
      3  C3        51.7470   56.6000   66.8600 C.3   615  INH615      0.1830
      4  C4        50.2730   56.6770   67.2620 C.3   615  INH615      0.1800
      5  C5        49.8190   55.2910   67.7790 C.3   615  INH615      0.1790
      6  O5        50.0050   54.2920   66.7150 O.3   615  INH615     -0.3490
      7  C6        48.3470   55.2780   68.2210 C.3   615  INH615      0.1980
      8  O6        47.5240   55.9900   67.3010 O.3   615  INH615     -0.3980
      9  H14       46.6290   55.6830   67.3750 H     615  INH615      0.2090
     10  O4        50.1140   57.6600   68.2860 O.3   615  INH615     -0.3900
     11  H13       50.7570   57.5120   68.9690 H     615  INH615      0.2100
     12  O3        52.2130   57.8710   66.3630 O.3   615  INH615     -0.3900
     13  H12       52.2620   57.8420   65.4150 H     615  INH615      0.2100
     14  O1        52.2530   53.5520   67.1900 O.3   615  INH615     -0.3630
     15  C7        51.9080   52.1720   67.4630 C.3   615  INH615      0.2040
     16  O2        53.2550   55.4300   65.3380 O.3   615  INH615     -0.3880
     17  H11       53.7530   54.9580   65.9940 H     615  INH615      0.2100
@<TRIPOS>BOND
     1    16     2    1
     2    16    17    1
     3    13    12    1
     4     2     1    1
     5     2     3    1
     6     1     6    1
     7     1    14    1
     8    12     3    1
     9     6     5    1
    10     3     4    1
    11    14    15    1
    12     4     5    1
    13     4    10    1
    14     8     9    1
    15     8     7    1
    16     5     7    1
    17    10    11    1
