@<TRIPOS>MOLECULE
./ligand/1ax0_lig.pdb
 30 30 0 0 0
SMALL
GASTEIGER

@<TRIPOS>ATOM
      1  C1        17.1550   -1.2410   36.3640 C.3   487  INH487      0.1776
      2  C2        16.0900   -0.6370   35.4390 C.3   487  INH487      0.1021
      3  C3        14.7130   -1.2450   35.7220 C.3   487  INH487      0.1065
      4  C4        14.8010   -2.7670   35.6700 C.3   487  INH487      0.1112
      5  C5        15.8730   -3.2350   36.6450 C.3   487  INH487      0.1129
      6  C6        16.0380   -4.7420   36.6550 C.3   487  INH487      0.0730
      7  C7        16.1870    1.6330   34.6300 C.2   487  INH487      0.2104
      8  C8        16.1100    3.1200   34.9420 C.3   487  INH487      0.0122
      9  N1        16.0300    0.7960   35.6500 N.am  487  INH487     -0.3053
     10  O1        16.8900   -0.8870   37.6750 O.3   487  INH487     -0.3654
     11  O2        13.7740   -0.7820   34.7560 O.3   487  INH487     -0.3871
     12  O3        15.1410   -3.1810   34.3550 O.3   487  INH487     -0.3865
     13  O4        17.1480   -2.6690   36.2790 O.3   487  INH487     -0.3414
     14  O5        16.8280   -5.1560   37.7590 O.3   487  INH487     -0.3924
     15  O6        16.3880    1.2560   33.4760 O.2   487  INH487     -0.2761
     16  H1        18.1450   -0.8610   36.0710 H     487  INH487      0.0928
     17  H2        16.3650   -0.8410   34.3940 H     487  INH487      0.0575
     18  H3        14.3810   -0.9370   36.7240 H     487  INH487      0.0640
     19  H4        13.8310   -3.2020   35.9520 H     487  INH487      0.0646
     20  H5        15.5970   -2.8980   37.6550 H     487  INH487      0.0647
     21  H6        16.5290   -5.0570   35.7220 H     487  INH487      0.0584
     22  H7        15.0460   -5.2130   36.7250 H     487  INH487      0.0584
     23  H8        16.2560    3.6970   34.0170 H     487  INH487      0.0322
     24  H9        16.8950    3.3840   35.6660 H     487  INH487      0.0322
     25  H10       15.1240    3.3550   35.3690 H     487  INH487      0.0322
     26  H11       15.8700    1.1570   36.5690 H     487  INH487      0.1492
     27  H12       16.8900    0.0600   37.7540 H     487  INH487      0.2125
     28  H13       13.7230    0.1660   34.7930 H     487  INH487      0.2100
     29  H14       14.4720   -2.8880   33.7480 H     487  INH487      0.2100
     30  H15       16.9190   -6.1020   37.7460 H     487  INH487      0.2095
@<TRIPOS>BOND
     1     1     2    1
     2     1    16    1
     3     1    13    1
     4     1    10    1
     5     2     9    1
     6     2    17    1
     7     2     3    1
     8     3     4    1
     9     3    18    1
    10     3    11    1
    11     4     5    1
    12     4    19    1
    13     4    12    1
    14     5    13    1
    15     5    20    1
    16     5     6    1
    17     6    22    1
    18     6    21    1
    19     6    14    1
    20     7    15    2
    21     7     9   am
    22     7     8    1
    23     8    25    1
    24     8    24    1
    25     8    23    1
    26     9    26    1
    27    10    27    1
    28    11    28    1
    29    12    29    1
    30    14    30    1
