@<TRIPOS>MOLECULE
/tmp/ewbell/vina_1ax0_1ax0_lig/vina/vina3.pdbqt
 20 20 0 0 0
SMALL
GASTEIGER

@<TRIPOS>ATOM
      1  C1        15.3210   -1.2590   34.6580 C.3   487  INH487      0.2820
      2  C2        15.9190   -1.8320   35.9500 C.3   487  INH487      0.1700
      3  C3        15.9170   -0.7810   37.0650 C.3   487  INH487      0.1770
      4  C4        16.5910    0.4950   36.5720 C.3   487  INH487      0.1800
      5  C5        15.8910    0.9670   35.3050 C.3   487  INH487      0.1790
      6  O4        15.9870   -0.0490   34.2860 O.3   487  INH487     -0.3490
      7  N1        15.1370   -2.9760   36.3730 N.am  487  INH487     -0.3490
      8  C7        15.7220   -4.1500   36.5810 C.2   487  INH487      0.2140
      9  O6        15.1060   -5.1580   36.9270 O.2   487  INH487     -0.2740
     10  C8        17.2280   -4.2160   36.3730 C.3   487  INH487      0.1170
     11  H11       14.1510   -2.8820   36.5090 H     487  INH487      0.1630
     12  O1        13.9820   -0.9710   34.8510 O.3   487  INH487     -0.3690
     13  H12       13.5160   -1.0620   34.0280 H     487  INH487      0.2120
     14  O2        16.6100   -1.2850   38.2030 O.3   487  INH487     -0.3910
     15  H13       16.3660   -0.7820   38.9710 H     487  INH487      0.2100
     16  O3        17.9580    0.2360   36.2920 O.3   487  INH487     -0.3900
     17  H14       18.2340   -0.5450   36.7570 H     487  INH487      0.2100
     18  C6        16.5020    2.2330   34.7350 C.3   487  INH487      0.1980
     19  O5        17.6640    1.9350   33.9750 O.3   487  INH487     -0.3980
     20  H15       18.1380    2.7380   33.7960 H     487  INH487      0.2090
@<TRIPOS>BOND
     1    20    19    1
     2    19    18    1
     3    13    12    1
     4     6     1    1
     5     6     5    1
     6     1    12    1
     7     1     2    1
     8    18     5    1
     9     5     4    1
    10     2     7    1
    11     2     3    1
    12    16     4    1
    13    16    17    1
    14     7    11    1
    15     7     8   am
    16    10     8    1
    17     4     3    1
    18     8     9    2
    19     3    14    1
    20    14    15    1
