@<TRIPOS>MOLECULE
/tmp/ewbell/vina_1ax0_1ax0_lig/vina/vina5.pdbqt
 20 20 0 0 0
SMALL
GASTEIGER

@<TRIPOS>ATOM
      1  C1        17.8720    1.0300   35.0210 C.3   487  INH487      0.2820
      2  C2        16.3840    0.6750   34.8990 C.3   487  INH487      0.1700
      3  C3        15.6200    1.7780   34.1600 C.3   487  INH487      0.1770
      4  C4        15.8930    3.1260   34.8190 C.3   487  INH487      0.1800
      5  C5        17.3960    3.3630   34.8570 C.3   487  INH487      0.1790
      6  O4        18.0380    2.3190   35.6170 O.3   487  INH487     -0.3490
      7  N1        16.2470   -0.5700   34.1690 N.am  487  INH487     -0.3490
      8  C7        15.6570   -1.6180   34.7330 C.2   487  INH487      0.2140
      9  O6        15.5270   -2.7020   34.1660 O.2   487  INH487     -0.2740
     10  C8        15.1300   -1.4320   36.1480 C.3   487  INH487      0.1170
     11  H11       16.5990   -0.6410   33.2360 H     487  INH487      0.1630
     12  O1        18.4500    1.0600   33.7640 O.3   487  INH487     -0.3690
     13  H12       17.7970    1.3130   33.1210 H     487  INH487      0.2120
     14  O2        14.2230    1.4990   34.1900 O.3   487  INH487     -0.3910
     15  H13       13.9070    1.3670   33.3040 H     487  INH487      0.2100
     16  O3        15.3790    3.1220   36.1430 O.3   487  INH487     -0.3900
     17  H14       15.3350    2.2300   36.4630 H     487  INH487      0.2100
     18  C6        17.7650    4.6820   35.5070 C.3   487  INH487      0.1980
     19  O5        16.7000    5.6150   35.3960 O.3   487  INH487     -0.3980
     20  H15       16.5840    6.0620   36.2270 H     487  INH487      0.2090
@<TRIPOS>BOND
     1    13    12    1
     2    11     7    1
     3    15    14    1
     4    12     1    1
     5     3    14    1
     6     3     4    1
     7     3     2    1
     8     9     8    2
     9     7     8   am
    10     7     2    1
    11     8    10    1
    12     4     5    1
    13     4    16    1
    14     5    18    1
    15     5     6    1
    16     2     1    1
    17     1     6    1
    18    19    18    1
    19    19    20    1
    20    16    17    1
