@<TRIPOS>MOLECULE
/tmp/ewbell/vina_1ax0_1ax0_lig/vina/vina4.pdbqt
 20 20 0 0 0
SMALL
GASTEIGER

@<TRIPOS>ATOM
      1  C1        16.0590   -0.2190   37.6360 C.3   487  INH487      0.2820
      2  C2        16.2030   -0.7520   36.2040 C.3   487  INH487      0.1700
      3  C3        17.0150    0.2190   35.3400 C.3   487  INH487      0.1770
      4  C4        16.4140    1.6180   35.4330 C.3   487  INH487      0.1800
      5  C5        16.3480    2.0320   36.8970 C.3   487  INH487      0.1790
      6  O4        15.5210    1.1060   37.6310 O.3   487  INH487     -0.3490
      7  N1        16.8750   -2.0360   36.2360 N.am  487  INH487     -0.3490
      8  C7        16.2040   -3.1520   35.9720 C.2   487  INH487      0.2140
      9  O6        16.7200   -4.2690   35.9980 O.2   487  INH487     -0.2740
     10  C8        14.7310   -3.0040   35.6230 C.3   487  INH487      0.1170
     11  H11       17.8490   -2.0820   36.4590 H     487  INH487      0.1630
     12  O1        17.3000   -0.1780   38.2460 O.3   487  INH487     -0.3690
     13  H12       17.8340   -0.8960   37.9270 H     487  INH487      0.2120
     14  O2        17.0080   -0.2210   33.9850 O.3   487  INH487     -0.3910
     15  H13       17.7740    0.1200   33.5380 H     487  INH487      0.2100
     16  O3        15.1060    1.6140   34.8810 O.3   487  INH487     -0.3900
     17  H14       14.6140    2.3480   35.2280 H     487  INH487      0.2100
     18  C6        15.7530    3.4130   37.0890 C.3   487  INH487      0.1980
     19  O5        15.8760    4.1850   35.9030 O.3   487  INH487     -0.3980
     20  H15       15.0140    4.4700   35.6210 H     487  INH487      0.2090
@<TRIPOS>BOND
     1    15    14    1
     2    14     3    1
     3    16    17    1
     4    16     4    1
     5     3     4    1
     6     3     2    1
     7     4     5    1
     8    20    19    1
     9    10     8    1
    10    19    18    1
    11     8     9    2
    12     8     7   am
    13     2     7    1
    14     2     1    1
    15     7    11    1
    16     5    18    1
    17     5     6    1
    18     6     1    1
    19     1    12    1
    20    13    12    1
