@<TRIPOS>MOLECULE
/tmp/ewbell/vina_1ax0_1ax0_lig/vina/vina2.pdbqt
 20 20 0 0 0
SMALL
GASTEIGER

@<TRIPOS>ATOM
      1  C1        15.3460    2.1970   34.1100 C.3   487  INH487      0.2820
      2  C2        16.2140    2.7010   35.2700 C.3   487  INH487      0.1700
      3  C3        17.2790    1.6660   35.6440 C.3   487  INH487      0.1770
      4  C4        16.6190    0.3130   35.8930 C.3   487  INH487      0.1800
      5  C5        15.8120   -0.0780   34.6630 C.3   487  INH487      0.1790
      6  O4        14.7940    0.9120   34.4110 O.3   487  INH487     -0.3490
      7  N1        16.8650    3.9350   34.8800 N.am  487  INH487     -0.3490
      8  C7        16.7620    5.0200   35.6400 C.2   487  INH487      0.2140
      9  O6        17.2820    6.0970   35.3510 O.2   487  INH487     -0.2740
     10  C8        15.9540    4.8870   36.9230 C.3   487  INH487      0.1170
     11  H11       17.3960    3.9710   34.0330 H     487  INH487      0.1630
     12  O1        16.1180    2.0760   32.9680 O.3   487  INH487     -0.3690
     13  H12       16.7140    2.8140   32.9080 H     487  INH487      0.2120
     14  O2        17.9720    2.0890   36.8150 O.3   487  INH487     -0.3910
     15  H13       18.3770    2.9330   36.6560 H     487  INH487      0.2100
     16  O3        15.7580    0.4020   37.0190 O.3   487  INH487     -0.3900
     17  H14       15.5990    1.3160   37.2250 H     487  INH487      0.2100
     18  C6        15.1090   -1.4120   34.8230 C.3   487  INH487      0.1980
     19  O5        13.8340   -1.2430   35.4250 O.3   487  INH487     -0.3980
     20  H15       13.9440   -1.0600   36.3510 H     487  INH487      0.2090
@<TRIPOS>BOND
     1    13    12    1
     2    12     1    1
     3    11     7    1
     4     1     6    1
     5     1     2    1
     6     6     5    1
     7     5    18    1
     8     5     4    1
     9    18    19    1
    10     7     2    1
    11     7     8   am
    12     2     3    1
    13     9     8    2
    14    19    20    1
    15     8    10    1
    16     3     4    1
    17     3    14    1
    18     4    16    1
    19    15    14    1
    20    16    17    1
