@<TRIPOS>MOLECULE
/tmp/ewbell/vina_1ax0_1ax0_lig/vina/vina1.pdbqt
 20 20 0 0 0
SMALL
GASTEIGER

@<TRIPOS>ATOM
      1  C1        17.2370   -1.2750   36.6330 C.3   487  INH487      0.2820
      2  C2        16.2930   -0.6060   35.6240 C.3   487  INH487      0.1700
      3  C3        14.8790   -1.1820   35.7360 C.3   487  INH487      0.1770
      4  C4        14.9320   -2.7030   35.6340 C.3   487  INH487      0.1800
      5  C5        15.8810   -3.2380   36.6980 C.3   487  INH487      0.1790
      6  O4        17.2020   -2.6980   36.4920 O.3   487  INH487     -0.3490
      7  N1        16.2490    0.8190   35.8830 N.am  487  INH487     -0.3490
      8  C7        16.7320    1.6800   34.9940 C.2   487  INH487      0.2140
      9  O6        16.7330    2.8980   35.1680 O.2   487  INH487     -0.2740
     10  C8        17.3040    1.0960   33.7110 C.3   487  INH487      0.1170
     11  H11       15.8510    1.1570   36.7360 H     487  INH487      0.1630
     12  O1        16.8430   -0.9610   37.9210 O.3   487  INH487     -0.3690
     13  H12       17.5950   -0.9950   38.5000 H     487  INH487      0.2120
     14  O2        14.0610   -0.6570   34.6940 O.3   487  INH487     -0.3910
     15  H13       13.4330   -0.0460   35.0620 H     487  INH487      0.2100
     16  O3        15.4000   -3.0800   34.3470 O.3   487  INH487     -0.3900
     17  H14       15.8790   -3.8970   34.4110 H     487  INH487      0.2100
     18  C6        16.0040   -4.7490   36.6660 C.3   487  INH487      0.1980
     19  O5        16.9850   -5.1560   35.7240 O.3   487  INH487     -0.3980
     20  H15       17.2790   -4.4010   35.2270 H     487  INH487      0.2090
@<TRIPOS>BOND
     1    10     8    1
     2    16    17    1
     3    16     4    1
     4    14    15    1
     5    14     3    1
     6     8     9    2
     7     8     7   am
     8    20    19    1
     9     2     3    1
    10     2     7    1
    11     2     1    1
    12     4     3    1
    13     4     5    1
    14    19    18    1
    15     7    11    1
    16     6     1    1
    17     6     5    1
    18     1    12    1
    19    18     5    1
    20    12    13    1
