@<TRIPOS>MOLECULE
./ligand/2qhz_lig.pdb
 64 66 0 0 0
SMALL
GASTEIGER

@<TRIPOS>ATOM
      1  F1        25.2620   26.9290   12.7400 F     203  INH203     -0.1662
      2  C1        24.6570   27.0110   11.5600 C.3   203  INH203      0.4137
      3  F2        25.5470   27.4360   10.6820 F     203  INH203     -0.1662
      4  F3        24.2440   25.7940   11.2190 F     203  INH203     -0.1662
      5  C2        23.5210   28.0080   11.5820 C.2   203  INH203      0.0342
      6  C3        23.2270   28.7490   10.3010 C.3   203  INH203     -0.0350
      7  C4        22.9110   28.2230   12.7580 C.2   203  INH203      0.0075
      8  C5        21.7270   29.1070   13.0060 C.2   203  INH203      0.2374
      9  O1        21.4020   29.9610   12.2010 O.2   203  INH203     -0.2708
     10  N1        21.0300   28.8440   14.1270 N.am  203  INH203     -0.3061
     11  C6        19.8110   29.5400   14.5450 C.3   203  INH203      0.0545
     12  C7        18.6310   28.5810   14.3080 C.3   203  INH203     -0.0067
     13  C8        18.3980   28.3290   12.8150 C.ar  203  INH203     -0.0455
     14  C9        17.6950   29.2480   12.0440 C.ar  203  INH203     -0.0585
     15  C10       17.4840   29.0180   10.6870 C.ar  203  INH203     -0.0615
     16  C11       17.9710   27.8640   10.0880 C.ar  203  INH203     -0.0617
     17  C12       18.6690   26.9400   10.8530 C.ar  203  INH203     -0.0615
     18  C13       18.8840   27.1730   12.2140 C.ar  203  INH203     -0.0585
     19  C14       20.0080   29.8740   16.0290 C.3   203  INH203      0.0881
     20  O2        19.9900   28.6690   16.8200 O.3   203  INH203     -0.3886
     21  C15       18.9480   30.8630   16.5560 C.3   203  INH203      0.0486
     22  N2        19.2510   32.1740   15.9310 N.3   203  INH203     -0.1692
     23  S1        18.0430   32.8250   15.0540 S.O2  203  INH203      0.0641
     24  O3        18.6680   33.6150   14.0430 O.2   203  INH203     -0.1527
     25  O4        17.3130   31.7570   14.4250 O.2   203  INH203     -0.1527
     26  C16       17.0000   33.7310   15.9270 C.ar  203  INH203      0.1434
     27  C17       17.0960   35.1230   15.9180 C.ar  203  INH203      0.0056
     28  C18       16.2170   35.9290   16.6520 C.ar  203  INH203      0.1604
     29  F4        16.3270   37.2680   16.6400 F     203  INH203     -0.2024
     30  C19       15.9850   33.1700   16.7190 C.ar  203  INH203      0.1525
     31  F5        15.8330   31.8390   16.7860 F     203  INH203     -0.2033
     32  C20       15.1030   33.9730   17.4620 C.ar  203  INH203      0.0136
     33  C21       15.2190   35.3620   17.4250 C.ar  203  INH203      0.1612
     34  F6        14.3920   36.1720   18.1260 F     203  INH203     -0.2024
     35  C22       20.0220   33.1220   16.7870 C.3   203  INH203      0.0518
     36  C23       21.4750   33.1020   16.2940 C.ar  203  INH203      0.0055
     37  C24       22.5310   33.1580   17.1400 C.ar  203  INH203     -0.0502
     38  C25       23.7330   33.0700   16.3800 C.ar  203  INH203     -0.0544
     39  C26       23.5010   32.9670   15.0600 C.ar  203  INH203     -0.0240
     40  S2        21.8830   32.9830   14.6610 S.2   203  INH203     -0.1003
     41  H1        22.3830   29.4360   10.4600 H     203  INH203      0.0277
     42  H2        22.9690   28.0280    9.5110 H     203  INH203      0.0277
     43  H3        24.1150   29.3230    9.9970 H     203  INH203      0.0277
     44  H4        23.3190   27.7010   13.6220 H     203  INH203      0.0672
     45  H5        21.3710   28.1160   14.7210 H     203  INH203      0.1494
     46  H6        19.6630   30.4630   13.9660 H     203  INH203      0.0527
     47  H7        17.7210   29.0210   14.7420 H     203  INH203      0.0332
     48  H8        18.8460   27.6220   14.8020 H     203  INH203      0.0332
     49  H9        17.3080   30.1510   12.5030 H     203  INH203      0.0620
     50  H10       16.9370   29.7430   10.0950 H     203  INH203      0.0618
     51  H11       17.8070   27.6860    9.0310 H     203  INH203      0.0618
     52  H12       19.0490   26.0350   10.3930 H     203  INH203      0.0618
     53  H13       19.4330   26.4480   12.8050 H     203  INH203      0.0620
     54  H14       20.9960   30.3460   16.1400 H     203  INH203      0.0625
     55  H15       19.1420   28.2480   16.7360 H     203  INH203      0.2099
     56  H16       17.9400   30.5290   16.2690 H     203  INH203      0.0470
     57  H17       19.0110   30.9400   17.6520 H     203  INH203      0.0470
     58  H18       17.8730   35.5940   15.3260 H     203  INH203      0.0668
     59  H19       14.3300   33.5110   18.0660 H     203  INH203      0.0676
     60  H20       19.6070   34.1360   16.6940 H     203  INH203      0.0498
     61  H21       19.9770   32.8020   17.8380 H     203  INH203      0.0498
     62  H22       22.4710   33.2540   18.2230 H     203  INH203      0.0626
     63  H23       24.7290   33.0850   16.8200 H     203  INH203      0.0623
     64  H24       24.2960   32.8810   14.3210 H     203  INH203      0.0693
@<TRIPOS>BOND
     1     1     2    1
     2     2     5    1
     3     2     4    1
     4     2     3    1
     5     5     7    2
     6     5     6    1
     7     6    43    1
     8     6    42    1
     9     6    41    1
    10     7    44    1
    11     7     8    1
    12     8    10   am
    13     8     9    2
    14    10    45    1
    15    10    11    1
    16    11    46    1
    17    11    19    1
    18    11    12    1
    19    12    48    1
    20    12    47    1
    21    12    13    1
    22    13    18   ar
    23    13    14   ar
    24    14    49    1
    25    14    15   ar
    26    15    50    1
    27    15    16   ar
    28    16    51    1
    29    16    17   ar
    30    17    52    1
    31    17    18   ar
    32    18    53    1
    33    19    54    1
    34    19    21    1
    35    19    20    1
    36    20    55    1
    37    21    57    1
    38    21    56    1
    39    21    22    1
    40    22    35    1
    41    22    23    1
    42    23    26    1
    43    23    25    2
    44    23    24    2
    45    26    30   ar
    46    26    27   ar
    47    27    58    1
    48    27    28   ar
    49    28    33   ar
    50    28    29    1
    51    30    32   ar
    52    30    31    1
    53    32    33   ar
    54    32    59    1
    55    33    34    1
    56    35    61    1
    57    35    60    1
    58    35    36    1
    59    36    40   ar
    60    36    37   ar
    61    37    62    1
    62    37    38   ar
    63    38    63    1
    64    38    39   ar
    65    39    64    1
    66    39    40   ar
