@<TRIPOS>MOLECULE
/tmp/ewbell/vina_2qhz_2qhz_lig/vina/vina1.pdbqt
 42 44 0 0 0
SMALL
GASTEIGER

@<TRIPOS>ATOM
      1  C14       20.6240   29.3250   14.6880 C.3   203  INH203      0.1590
      2  C6        20.8050   28.9170   13.2210 C.3   203  INH203      0.1190
      3  N1        19.5590   29.2890   12.5460 N.am  203  INH203     -0.3500
      4  C5        19.0810   28.7130   11.4280 C.2   203  INH203      0.2420
      5  O1        18.0460   29.0580   10.8870 O.2   203  INH203     -0.2690
      6  H5        19.0230   30.0310   12.9480 H     203  INH203      0.1630
      7  C4        19.8700   27.5480   10.9130 C.2   203  INH203      0.0850
      8  C2        19.6390   26.2490   11.1590 C.2   203  INH203      0.0270
      9  C3        18.4310   25.7010   11.8770 C.3   203  INH203      0.0530
     10  C1        20.6180   25.2480   10.5880 C.3   203  INH203      0.4130
     11  F1        21.4170   24.7530   11.5280 F     203  INH203     -0.1660
     12  F3        20.0010   24.2350    9.9910 F     203  INH203     -0.1660
     13  F2        21.3760   25.8820    9.7130 F     203  INH203     -0.1660
     14  C7        21.9470   29.6860   12.5330 C.3   203  INH203      0.0660
     15  C8        22.8830   28.7440   11.7680 C.ar  203  INH203     -0.0560
     16  C13       23.1610   28.9680   10.4240 C.ar  203  INH203      0.0070
     17  C12       24.0170   28.1120    9.7270 C.ar  203  INH203      0.0010
     18  C11       24.5950   27.0260   10.3690 C.ar  203  INH203      0.0000
     19  C10       24.3190   26.8010   11.7120 C.ar  203  INH203      0.0010
     20  C9        23.4690   27.6580   12.4080 C.ar  203  INH203      0.0070
     21  C15       19.1830   29.7780   15.0000 C.3   203  INH203      0.1690
     22  N2        19.2460   31.2410   15.2410 N.3   203  INH203     -0.2990
     23  C22       19.3560   31.6430   16.6740 C.3   203  INH203      0.1810
     24  C23       20.5400   32.6130   16.7850 C.ar  203  INH203      0.0010
     25  S2        20.3400   34.2750   16.9960 S.2   203  INH203     -0.1050
     26  C26       21.9920   34.4860   16.9400 C.ar  203  INH203      0.0500
     27  C25       22.6790   33.3410   16.7890 C.ar  203  INH203      0.0080
     28  C24       21.8270   32.2020   16.6990 C.ar  203  INH203      0.0170
     29  S1        18.2520   32.1430   14.3190 S.O2  203  INH203      0.2640
     30  O4        17.5310   31.2650   13.4370 O.2   203  INH203     -0.2000
     31  O3        19.0940   32.9910   13.5390 O.2   203  INH203     -0.2000
     32  C16       17.1770   33.0300   15.1720 C.ar  203  INH203      0.1210
     33  C19       16.2900   32.4630   16.1010 C.ar  203  INH203      0.1420
     34  C20       15.3770   33.2500   16.8230 C.ar  203  INH203      0.0890
     35  F5        16.2950   31.1400   16.3240 F     203  INH203     -0.2040
     36  C21       15.3320   34.6290   16.6270 C.ar  203  INH203      0.1570
     37  C18       16.2030   35.2040   15.7170 C.ar  203  INH203      0.1560
     38  F6        14.4700   35.4250   17.3020 F     203  INH203     -0.2030
     39  C17       17.1140   34.4150   15.0040 C.ar  203  INH203      0.0740
     40  F4        16.1600   36.5370   15.5520 F     203  INH203     -0.2030
     41  O2        20.9950   28.2370   15.5590 O.3   203  INH203     -0.3920
     42  H15       21.8540   27.9140   15.3120 H     203  INH203      0.2100
@<TRIPOS>BOND
     1    13    10    1
     2    17    18   ar
     3    17    16   ar
     4    12    10    1
     5    18    19   ar
     6    16    15   ar
     7    10     8    1
     8    10    11    1
     9     5     4    2
    10     7     8    2
    11     7     4    1
    12     8     9    1
    13     4     3   am
    14    19    20   ar
    15    15    20   ar
    16    15    14    1
    17    14     2    1
    18     3     6    1
    19     3     2    1
    20     2     1    1
    21    30    29    2
    22    31    29    2
    23    29    32    1
    24    29    22    1
    25     1    21    1
    26     1    41    1
    27    21    22    1
    28    39    32   ar
    29    39    37   ar
    30    32    33   ar
    31    22    23    1
    32    42    41    1
    33    40    37    1
    34    37    36   ar
    35    33    35    1
    36    33    34   ar
    37    36    34   ar
    38    36    38    1
    39    23    24    1
    40    28    24   ar
    41    28    27   ar
    42    24    25   ar
    43    27    26   ar
    44    26    25   ar
