@<TRIPOS>MOLECULE
/tmp/ewbell/vina_2qhz_2qhz_lig/vina/vina5.pdbqt
 42 44 0 0 0
SMALL
GASTEIGER

@<TRIPOS>ATOM
      1  C14       20.6940   29.0870   12.0070 C.3   203  INH203      0.1590
      2  C6        20.1850   27.9660   11.0920 C.3   203  INH203      0.1190
      3  N1        20.3640   26.7230   11.8460 N.am  203  INH203     -0.3500
      4  C5        21.2650   25.7650   11.5580 C.2   203  INH203      0.2420
      5  O1        21.3770   24.7370   12.2010 O.2   203  INH203     -0.2690
      6  H5        19.7700   26.5750   12.6360 H     203  INH203      0.1630
      7  C4        22.1940   26.0710   10.4230 C.2   203  INH203      0.0850
      8  C2        23.4890   26.4110   10.5140 C.2   203  INH203      0.0270
      9  C3        24.3060   26.3940   11.7820 C.3   203  INH203      0.0530
     10  C1        24.2110   26.7490    9.2290 C.3   203  INH203      0.4130
     11  F1        25.5130   26.4980    9.3170 F     203  INH203     -0.1660
     12  F3        23.7260   26.0710    8.1940 F     203  INH203     -0.1660
     13  F2        24.0660   28.0430    9.0150 F     203  INH203     -0.1660
     14  C7        18.6850   28.0990   10.7760 C.3   203  INH203      0.0660
     15  C8        18.2630   27.1740    9.6310 C.ar  203  INH203     -0.0560
     16  C13       17.8420   25.8760    9.8940 C.ar  203  INH203      0.0070
     17  C12       17.4540   25.0330    8.8490 C.ar  203  INH203      0.0010
     18  C11       17.4890   25.4840    7.5380 C.ar  203  INH203      0.0000
     19  C10       17.9080   26.7810    7.2720 C.ar  203  INH203      0.0010
     20  C9        18.2910   27.6230    8.3150 C.ar  203  INH203      0.0070
     21  C15       19.9700   29.1120   13.3680 C.3   203  INH203      0.1690
     22  N2        20.1330   30.4860   13.9050 N.3   203  INH203     -0.2990
     23  C22       20.5050   30.5630   15.3470 C.3   203  INH203      0.1810
     24  C23       21.7380   31.4710   15.4510 C.ar  203  INH203      0.0010
     25  S2        22.0850   32.3850   16.8260 S.2   203  INH203     -0.1050
     26  C26       23.4220   33.0300   16.0680 C.ar  203  INH203      0.0500
     27  C25       23.6180   32.5580   14.8250 C.ar  203  INH203      0.0080
     28  C24       22.6220   31.6160   14.4350 C.ar  203  INH203      0.0170
     29  S1        19.0300   31.5700   13.3920 S.O2  203  INH203      0.2640
     30  O4        18.0550   30.8800   12.5910 O.2   203  INH203     -0.2000
     31  O3        19.7370   32.4940   12.5660 O.2   203  INH203     -0.2000
     32  C16       18.2580   32.3550   14.6000 C.ar  203  INH203      0.1210
     33  C19       18.7630   33.5220   15.1940 C.ar  203  INH203      0.1420
     34  C20       18.0760   34.1780   16.2300 C.ar  203  INH203      0.0890
     35  F5        19.9260   34.0460   14.7790 F     203  INH203     -0.2040
     36  C21       16.8640   33.6730   16.6970 C.ar  203  INH203      0.1570
     37  C18       16.3510   32.5230   16.1190 C.ar  203  INH203      0.1560
     38  F6        16.1690   34.2730   17.6910 F     203  INH203     -0.2030
     39  C17       17.0380   31.8780   15.0830 C.ar  203  INH203      0.0740
     40  F4        15.1730   32.0580   16.5680 F     203  INH203     -0.2030
     41  O2        22.1160   28.9600   12.2100 O.3   203  INH203     -0.3920
     42  H15       22.3560   28.0400   12.1990 H     203  INH203      0.2100
@<TRIPOS>BOND
     1    19    18   ar
     2    19    20   ar
     3    18    17   ar
     4    12    10    1
     5    20    15   ar
     6    17    16   ar
     7    13    10    1
     8    10    11    1
     9    10     8    1
    10    15    16   ar
    11    15    14    1
    12     7     8    2
    13     7     4    1
    14     8     9    1
    15    14     2    1
    16     2     3    1
    17     2     1    1
    18     4     3   am
    19     4     5    2
    20     3     6    1
    21     1    41    1
    22     1    21    1
    23    42    41    1
    24    31    29    2
    25    30    29    2
    26    21    22    1
    27    29    22    1
    28    29    32    1
    29    22    23    1
    30    28    27   ar
    31    28    24   ar
    32    32    39   ar
    33    32    33   ar
    34    35    33    1
    35    27    26   ar
    36    39    37   ar
    37    33    34   ar
    38    23    24    1
    39    24    25   ar
    40    26    25   ar
    41    37    40    1
    42    37    36   ar
    43    34    36   ar
    44    36    38    1
