@<TRIPOS>MOLECULE
/tmp/ewbell/vina_2qhz_2qhz_lig/vina/vina3.pdbqt
 42 44 0 0 0
SMALL
GASTEIGER

@<TRIPOS>ATOM
      1  C14       19.8360   28.7620   11.5890 C.3   203  INH203      0.1590
      2  C6        20.1910   29.7560   12.7010 C.3   203  INH203      0.1190
      3  N1        20.4080   28.9490   13.9050 N.am  203  INH203     -0.3500
      4  C5        19.7430   29.0940   15.0660 C.2   203  INH203      0.2420
      5  O1        19.9600   28.4110   16.0510 O.2   203  INH203     -0.2690
      6  H5        21.1070   28.2350   13.8590 H     203  INH203      0.1630
      7  C4        18.6450   30.1130   15.0590 C.2   203  INH203      0.0850
      8  C2        18.4910   31.1330   15.9170 C.2   203  INH203      0.0270
      9  C3        19.4940   31.5490   16.9640 C.3   203  INH203      0.0530
     10  C1        17.2580   31.9940   15.7590 C.3   203  INH203      0.4130
     11  F1        16.9600   32.1950   14.4800 F     203  INH203     -0.1660
     12  F3        16.1980   31.4560   16.3530 F     203  INH203     -0.1660
     13  F2        17.5170   33.1700   16.3000 F     203  INH203     -0.1660
     14  C7        21.4980   30.5160   12.4160 C.3   203  INH203      0.0660
     15  C8        21.8480   31.4860   13.5500 C.ar  203  INH203     -0.0560
     16  C13       21.0860   32.6300   13.7570 C.ar  203  INH203      0.0070
     17  C12       21.4030   33.5130   14.7930 C.ar  203  INH203      0.0010
     18  C11       22.4850   33.2560   15.6220 C.ar  203  INH203      0.0000
     19  C10       23.2470   32.1140   15.4180 C.ar  203  INH203      0.0010
     20  C9        22.9280   31.2310   14.3880 C.ar  203  INH203      0.0070
     21  C15       19.7860   27.3050   12.0950 C.3   203  INH203      0.1690
     22  N2        20.9940   26.6330   11.5550 N.3   203  INH203     -0.2990
     23  C22       21.7630   27.4220   10.5490 C.3   203  INH203      0.1810
     24  C23       23.2410   27.3610   10.9570 C.ar  203  INH203      0.0010
     25  S2        24.4680   26.9350    9.8790 S.2   203  INH203     -0.1050
     26  C26       25.5940   27.0610   11.1010 C.ar  203  INH203      0.0500
     27  C25       25.0700   27.4330   12.2820 C.ar  203  INH203      0.0080
     28  C24       23.6590   27.6240   12.2180 C.ar  203  INH203      0.0170
     29  S1        20.8240   25.0430   11.2380 S.O2  203  INH203      0.2640
     30  O4        21.0960   24.3100   12.4450 O.2   203  INH203     -0.2000
     31  O3        21.8210   24.7240   10.2690 O.2   203  INH203     -0.2000
     32  C16       19.3400   24.6290   10.6950 C.ar  203  INH203      0.1210
     33  C19       18.8540   25.0190    9.4370 C.ar  203  INH203      0.1420
     34  C20       17.5740   24.6450    8.9940 C.ar  203  INH203      0.0890
     35  F5        19.6110   25.7660    8.6190 F     203  INH203     -0.2040
     36  C21       16.7490   23.8700    9.8070 C.ar  203  INH203      0.1570
     37  C18       17.2150   23.4740   11.0490 C.ar  203  INH203      0.1560
     38  F6        15.5110   23.4870    9.4190 F     203  INH203     -0.2030
     39  C17       18.4940   23.8460   11.4830 C.ar  203  INH203      0.0740
     40  F4        16.4160   22.7130   11.8140 F     203  INH203     -0.2030
     41  O2        18.5740   29.1140   10.9870 O.3   203  INH203     -0.3920
     42  H15       18.5490   30.0520   10.8320 H     203  INH203      0.2100
@<TRIPOS>BOND
     1    35    33    1
     2    34    33   ar
     3    34    36   ar
     4    38    36    1
     5    33    32   ar
     6    36    37   ar
     7    25    24   ar
     8    25    26   ar
     9    31    29    2
    10    23    24    1
    11    23    22    1
    12    32    29    1
    13    32    39   ar
    14    42    41    1
    15    24    28   ar
    16    41     1    1
    17    37    39   ar
    18    37    40    1
    19    26    27   ar
    20    29    22    1
    21    29    30    2
    22    22    21    1
    23     1    21    1
    24     1     2    1
    25    28    27   ar
    26    14     2    1
    27    14    15    1
    28     2     3    1
    29    15    16   ar
    30    15    20   ar
    31    16    17   ar
    32     6     3    1
    33     3     4   am
    34    20    19   ar
    35    11    10    1
    36    17    18   ar
    37     7     4    1
    38     7     8    2
    39     4     5    2
    40    19    18   ar
    41    10     8    1
    42    10    13    1
    43    10    12    1
    44     8     9    1
