@<TRIPOS>MOLECULE
/tmp/ewbell/vina_2qhz_2qhz_lig/vina/vina4.pdbqt
 42 44 0 0 0
SMALL
GASTEIGER

@<TRIPOS>ATOM
      1  C14       17.4440   32.8640   16.1240 C.3   203  INH203      0.1590
      2  C6        18.4600   32.1630   15.2130 C.3   203  INH203      0.1190
      3  N1        17.6820   31.6000   14.1060 N.am  203  INH203     -0.3500
      4  C5        17.9980   30.4830   13.4250 C.2   203  INH203      0.2420
      5  O1        17.3330   30.0520   12.5010 O.2   203  INH203     -0.2690
      6  H5        16.8510   32.0860   13.8350 H     203  INH203      0.1630
      7  C4        19.2000   29.7400   13.9240 C.2   203  INH203      0.0850
      8  C2        20.4120   29.6950   13.3500 C.2   203  INH203      0.0270
      9  C3        20.8450   30.5240   12.1660 C.3   203  INH203      0.0530
     10  C1        21.4560   28.8140   13.9980 C.3   203  INH203      0.4130
     11  F1        21.6750   27.7110   13.2910 F     203  INH203     -0.1660
     12  F3        22.6140   29.4470   14.1510 F     203  INH203     -0.1660
     13  F2        20.9940   28.4480   15.1790 F     203  INH203     -0.1660
     14  C7        19.4810   33.1410   14.6060 C.3   203  INH203      0.0660
     15  C8        20.9120   32.8040   15.0350 C.ar  203  INH203     -0.0560
     16  C13       21.9910   33.1930   14.2500 C.ar  203  INH203      0.0070
     17  C12       23.2970   32.8890   14.6430 C.ar  203  INH203      0.0010
     18  C11       23.5280   32.1920   15.8200 C.ar  203  INH203      0.0000
     19  C10       22.4520   31.8030   16.6060 C.ar  203  INH203      0.0010
     20  C9        21.1500   32.1100   16.2160 C.ar  203  INH203      0.0070
     21  C15       17.3810   34.3850   15.8750 C.3   203  INH203      0.1690
     22  N2        17.6100   35.0340   17.1890 N.3   203  INH203     -0.2990
     23  C22       18.6660   34.4030   18.0330 C.3   203  INH203      0.1810
     24  C23       19.8320   35.3960   18.1210 C.ar  203  INH203      0.0010
     25  S2        19.7210   36.8620   18.9510 S.2   203  INH203     -0.1050
     26  C26       21.2740   37.2490   18.4870 C.ar  203  INH203      0.0500
     27  C25       21.8700   36.2970   17.7480 C.ar  203  INH203      0.0080
     28  C24       21.0250   35.1740   17.5210 C.ar  203  INH203      0.0170
     29  S1        16.2660   35.5210   17.9700 S.O2  203  INH203      0.2640
     30  O4        16.2040   34.8350   19.2330 O.2   203  INH203     -0.2000
     31  O3        15.1650   35.1040   17.1640 O.2   203  INH203     -0.2000
     32  C16       16.2020   37.1310   18.2430 C.ar  203  INH203      0.1210
     33  C19       16.2230   38.0790   17.2080 C.ar  203  INH203      0.1420
     34  C20       16.1630   39.4580   17.4720 C.ar  203  INH203      0.0890
     35  F5        16.2990   37.6850   15.9280 F     203  INH203     -0.2040
     36  C21       16.0830   39.9180   18.7850 C.ar  203  INH203      0.1570
     37  C18       16.0580   38.9950   19.8170 C.ar  203  INH203      0.1560
     38  F6        16.0230   41.2370   19.0840 F     203  INH203     -0.2030
     39  C17       16.1130   37.6220   19.5470 C.ar  203  INH203      0.0740
     40  F4        15.9640   39.4530   21.0760 F     203  INH203     -0.2030
     41  O2        16.1350   32.2840   15.9530 O.3   203  INH203     -0.3920
     42  H15       15.7910   32.0260   16.8010 H     203  INH203      0.2100
@<TRIPOS>BOND
     1     9     8    1
     2     5     4    2
     3    11    10    1
     4     8     7    2
     5     8    10    1
     6     4     7    1
     7     4     3   am
     8     6     3    1
     9    10    12    1
    10    10    13    1
    11     3     2    1
    12    16    17   ar
    13    16    15   ar
    14    14    15    1
    15    14     2    1
    16    17    18   ar
    17    15    20   ar
    18     2     1    1
    19    18    19   ar
    20    21     1    1
    21    21    22    1
    22    35    33    1
    23    41     1    1
    24    41    42    1
    25    20    19   ar
    26    31    29    2
    27    22    29    1
    28    22    23    1
    29    33    34   ar
    30    33    32   ar
    31    34    36   ar
    32    28    27   ar
    33    28    24   ar
    34    27    26   ar
    35    29    32    1
    36    29    30    2
    37    23    24    1
    38    24    25   ar
    39    32    39   ar
    40    26    25   ar
    41    36    38    1
    42    36    37   ar
    43    39    37   ar
    44    37    40    1
