@<TRIPOS>MOLECULE
/tmp/ewbell/vina_2qhz_2qhz_lig/vina/vina2.pdbqt
 42 44 0 0 0
SMALL
GASTEIGER

@<TRIPOS>ATOM
      1  C14       18.5740   31.1850   15.0890 C.3   203  INH203      0.1590
      2  C6        18.6920   32.5640   15.7490 C.3   203  INH203      0.1190
      3  N1        20.0970   32.9560   15.6070 N.am  203  INH203     -0.3500
      4  C5        20.7620   33.7740   16.4430 C.2   203  INH203      0.2420
      5  O1        21.9290   34.0870   16.2860 O.2   203  INH203     -0.2690
      6  H5        20.6000   32.5860   14.8260 H     203  INH203      0.1630
      7  C4        19.9960   34.2310   17.6460 C.2   203  INH203      0.0850
      8  C2        19.7740   35.5000   18.0240 C.2   203  INH203      0.0270
      9  C3        20.1220   36.7230   17.2110 C.3   203  INH203      0.0530
     10  C1        19.0330   35.7190   19.3230 C.3   203  INH203      0.4130
     11  F1        19.0130   37.0030   19.6660 F     203  INH203     -0.1660
     12  F3        17.7780   35.2880   19.2570 F     203  INH203     -0.1660
     13  F2        19.6770   35.0610   20.2690 F     203  INH203     -0.1660
     14  C7        17.8440   33.6330   15.0370 C.3   203  INH203      0.0660
     15  C8        16.7810   34.2250   15.9680 C.ar  203  INH203     -0.0560
     16  C13       16.4300   35.5670   15.8710 C.ar  203  INH203      0.0070
     17  C12       15.4590   36.1060   16.7180 C.ar  203  INH203      0.0010
     18  C11       14.8370   35.3070   17.6670 C.ar  203  INH203      0.0000
     19  C10       15.1850   33.9660   17.7650 C.ar  203  INH203      0.0010
     20  C9        16.1520   33.4270   16.9180 C.ar  203  INH203      0.0070
     21  C15       19.9360   30.4720   14.9640 C.3   203  INH203      0.1690
     22  N2        20.0730   30.0760   13.5410 N.3   203  INH203     -0.2990
     23  C22       19.8250   28.6320   13.2580 C.3   203  INH203      0.1810
     24  C23       18.9020   28.5600   12.0340 C.ar  203  INH203      0.0010
     25  S2        19.2430   27.5970   10.6900 S.2   203  INH203     -0.1050
     26  C26       17.8710   28.1620    9.9300 C.ar  203  INH203      0.0500
     27  C25       17.1640   29.0330   10.6700 C.ar  203  INH203      0.0080
     28  C24       17.7610   29.2830   11.9390 C.ar  203  INH203      0.0170
     29  S1        21.3210   30.7560   12.7440 S.O2  203  INH203      0.2640
     30  O4        21.9890   31.6620   13.6390 O.2   203  INH203     -0.2000
     31  O3        20.7470   31.5040   11.6730 O.2   203  INH203     -0.2000
     32  C16       22.4110   29.6810   12.1740 C.ar  203  INH203      0.1210
     33  C19       23.1420   28.8230   13.0110 C.ar  203  INH203      0.1420
     34  C20       24.0720   27.9060   12.4930 C.ar  203  INH203      0.0890
     35  F5        22.9670   28.8600   14.3410 F     203  INH203     -0.2040
     36  C21       24.2920   27.8300   11.1190 C.ar  203  INH203      0.1570
     37  C18       23.5750   28.6660   10.2800 C.ar  203  INH203      0.1560
     38  F6        25.1760   26.9600   10.5780 F     203  INH203     -0.2030
     39  C17       22.6460   29.5750   10.8020 C.ar  203  INH203      0.0740
     40  F4        23.7850   28.5690    8.9570 F     203  INH203     -0.2030
     41  O2        17.6530   30.3560   15.8250 O.3   203  INH203     -0.3920
     42  H15       18.0460   30.1040   16.6530 H     203  INH203      0.2100
@<TRIPOS>BOND
     1    40    37    1
     2    26    27   ar
     3    26    25   ar
     4    37    39   ar
     5    37    36   ar
     6    38    36    1
     7    27    28   ar
     8    25    24   ar
     9    39    32   ar
    10    36    34   ar
    11    31    29    2
    12    28    24   ar
    13    24    23    1
    14    32    29    1
    15    32    33   ar
    16    34    33   ar
    17    29    22    1
    18    29    30    2
    19    33    35    1
    20    23    22    1
    21    22    21    1
    22     6     3    1
    23    21     1    1
    24    14     2    1
    25    14    15    1
    26     1     2    1
    27     1    41    1
    28     3     2    1
    29     3     4   am
    30    41    42    1
    31    16    15   ar
    32    16    17   ar
    33    15    20   ar
    34     5     4    2
    35     4     7    1
    36    17    18   ar
    37    20    19   ar
    38     9     8    1
    39     7     8    2
    40    18    19   ar
    41     8    10    1
    42    12    10    1
    43    10    11    1
    44    10    13    1
