@<TRIPOS>MOLECULE
./ligand/1uzv_lig.pdb
 23 23 0 0 0
SMALL
GASTEIGER

@<TRIPOS>ATOM
      1  C1        36.7820   35.4740   23.6730 C.3   473  INH473      0.1853
      2  O1        36.5210   36.0990   22.4440 O.3   473  INH473     -0.3649
      3  C2        35.4620   35.2830   24.4120 C.3   473  INH473      0.1339
      4  O2        34.6960   36.4770   24.5870 O.3   473  INH473     -0.3841
      5  C3        34.6540   34.2710   23.6770 C.3   473  INH473      0.1140
      6  O3        33.4530   34.0260   24.4340 O.3   473  INH473     -0.3864
      7  C4        35.4030   32.9810   23.4600 C.3   473  INH473      0.1095
      8  O4        35.5480   32.3800   24.7470 O.3   473  INH473     -0.3866
      9  C5        36.7370   33.2240   22.8030 C.3   473  INH473      0.0873
     10  O5        37.4620   34.2390   23.5580 O.3   473  INH473     -0.3433
     11  C6        37.6020   32.0010   22.6790 C.3   473  INH473     -0.0361
     12  H1        37.4550   36.1260   24.2300 H     473  INH473      0.0935
     13  H2        36.1130   36.9480   22.6310 H     473  INH473      0.2126
     14  H3        35.7130   34.9520   25.4200 H     473  INH473      0.0671
     15  H4        35.2480   37.1100   25.0520 H     473  INH473      0.2101
     16  H5        34.4210   34.6630   22.6870 H     473  INH473      0.0648
     17  H6        32.5960   34.3060   23.7090 H     473  INH473      0.2100
     18  H7        34.8600   32.3200   22.7840 H     473  INH473      0.0646
     19  H8        36.0350   31.5610   24.6320 H     473  INH473      0.2100
     20  H9        36.5180   33.5490   21.7860 H     473  INH473      0.0621
     21  H10       37.8520   31.6310   23.6730 H     473  INH473      0.0255
     22  H11       38.5170   32.2560   22.1450 H     473  INH473      0.0255
     23  H12       37.0630   31.2290   22.1290 H     473  INH473      0.0255
@<TRIPOS>BOND
     1     1    12    1
     2     1    10    1
     3     1     3    1
     4     1     2    1
     5     2    13    1
     6     3    14    1
     7     3     5    1
     8     3     4    1
     9     4    15    1
    10     5    16    1
    11     5     7    1
    12     5     6    1
    13     6    17    1
    14     7    18    1
    15     7     9    1
    16     7     8    1
    17     8    19    1
    18     9    20    1
    19     9    11    1
    20     9    10    1
    21    11    23    1
    22    11    22    1
    23    11    21    1
