@<TRIPOS>MOLECULE
/tmp/ewbell/vina_1uzv_1uzv_lig/vina/vina4.pdbqt
 15 15 0 0 0
SMALL
GASTEIGER

@<TRIPOS>ATOM
      1  C1        35.7380   33.6420   22.9900 C.3   473  INH473      0.2880
      2  C2        34.6530   34.5240   23.5970 C.3   473  INH473      0.2040
      3  C3        35.2830   35.7900   24.0650 C.3   473  INH473      0.1820
      4  C4        36.0680   36.4800   22.9790 C.3   473  INH473      0.1780
      5  C5        37.0720   35.5480   22.3500 C.3   473  INH473      0.1520
      6  O5        36.3930   34.3250   21.9390 O.3   473  INH473     -0.3510
      7  C6        37.7980   36.1220   21.1660 C.3   473  INH473      0.0420
      8  O1        36.5950   33.2160   24.0160 O.3   473  INH473     -0.3690
      9  H2        36.9770   32.3770   23.7460 H     473  INH473      0.2120
     10  O2        33.9230   33.9230   24.6690 O.3   473  INH473     -0.3880
     11  H4        33.7420   33.0140   24.4230 H     473  INH473      0.2100
     12  O3        34.2370   36.6550   24.5470 O.3   473  INH473     -0.3900
     13  H6        34.1990   37.5160   23.7750 H     473  INH473      0.2100
     14  O4        35.1120   36.9480   22.0280 O.3   473  INH473     -0.3900
     15  H8        35.2080   36.4180   21.2340 H     473  INH473      0.2100
@<TRIPOS>BOND
     1     7     5    1
     2    15    14    1
     3     6     5    1
     4     6     1    1
     5    14     4    1
     6     5     4    1
     7     4     3    1
     8     1     2    1
     9     1     8    1
    10     2     3    1
    11     2    10    1
    12     9     8    1
    13    13    12    1
    14     3    12    1
    15    11    10    1
