@<TRIPOS>MOLECULE
/tmp/ewbell/vina_1uzv_1uzv_lig/vina/vina1.pdbqt
 15 15 0 0 0
SMALL
GASTEIGER

@<TRIPOS>ATOM
      1  C1        36.6750   35.7580   23.7110 C.3   473  INH473      0.2880
      2  C2        35.3790   35.4850   24.4660 C.3   473  INH473      0.2040
      3  C3        34.6750   34.3550   23.7990 C.3   473  INH473      0.1820
      4  C4        35.5480   33.1340   23.6590 C.3   473  INH473      0.1780
      5  C5        36.8530   33.4650   22.9830 C.3   473  INH473      0.1520
      6  O5        37.4730   34.5910   23.6700 O.3   473  INH473     -0.3510
      7  C6        37.8340   32.3280   22.9310 C.3   473  INH473      0.0420
      8  O1        36.3560   36.2770   22.4470 O.3   473  INH473     -0.3690
      9  H2        36.4640   35.5690   21.8070 H     473  INH473      0.2120
     10  O2        34.4990   36.6070   24.5700 O.3   473  INH473     -0.3880
     11  H4        33.6930   36.3040   24.9950 H     473  INH473      0.2100
     12  O3        33.5030   34.0410   24.5750 O.3   473  INH473     -0.3900
     13  H6        32.6280   34.4870   23.9640 H     473  INH473      0.2100
     14  O4        35.7490   32.6310   24.9800 O.3   473  INH473     -0.3900
     15  H8        36.5060   32.0420   24.9550 H     473  INH473      0.2100
@<TRIPOS>BOND
     1     9     8    1
     2     8     1    1
     3     7     5    1
     4     5     4    1
     5     5     6    1
     6     4     3    1
     7     4    14    1
     8     6     1    1
     9     1     2    1
    10     3     2    1
    11     3    12    1
    12    13    12    1
    13     2    10    1
    14    10    11    1
    15    15    14    1
