@<TRIPOS>MOLECULE
/tmp/ewbell/vina_1uzv_1uzv_lig/vina/vina2.pdbqt
 15 15 0 0 0
SMALL
GASTEIGER

@<TRIPOS>ATOM
      1  C1        35.3410   33.7500   21.5090 C.3   473  INH473      0.2880
      2  C2        35.2290   32.8050   22.7000 C.3   473  INH473      0.2040
      3  C3        35.7660   33.4990   23.9030 C.3   473  INH473      0.1820
      4  C4        35.1060   34.8330   24.1430 C.3   473  INH473      0.1780
      5  C5        35.1660   35.7040   22.9150 C.3   473  INH473      0.1520
      6  O5        34.6500   34.9560   21.7750 O.3   473  INH473     -0.3510
      7  C6        34.4080   36.9970   23.0300 C.3   473  INH473      0.0420
      8  O1        36.6990   33.9260   21.2020 O.3   473  INH473     -0.3690
      9  H2        36.9250   34.8390   21.3960 H     473  INH473      0.2120
     10  O2        35.8920   31.5490   22.5320 O.3   473  INH473     -0.3880
     11  H4        36.8360   31.7210   22.5090 H     473  INH473      0.2100
     12  O3        35.5670   32.6360   25.0400 O.3   473  INH473     -0.3900
     13  H6        34.4620   32.3050   24.9580 H     473  INH473      0.2100
     14  O4        33.7600   34.5520   24.5270 O.3   473  INH473     -0.3900
     15  H8        33.2670   35.3740   24.4820 H     473  INH473      0.2100
@<TRIPOS>BOND
     1     8     9    1
     2     8     1    1
     3     1     6    1
     4     1     2    1
     5     6     5    1
     6    11    10    1
     7    10     2    1
     8     2     3    1
     9     5     7    1
    10     5     4    1
    11     3     4    1
    12     3    12    1
    13     4    14    1
    14    15    14    1
    15    13    12    1
