@<TRIPOS>MOLECULE
/tmp/ewbell/vina_1uzv_1uzv_lig/vina/vina5.pdbqt
 15 15 0 0 0
SMALL
GASTEIGER

@<TRIPOS>ATOM
      1  C1        35.1020   35.8060   21.1270 C.3   473  INH473      0.2880
      2  C2        34.6910   36.7380   22.2620 C.3   473  INH473      0.2040
      3  C3        34.5320   35.9280   23.5010 C.3   473  INH473      0.1820
      4  C4        35.7590   35.1120   23.8190 C.3   473  INH473      0.1780
      5  C5        36.1790   34.2690   22.6430 C.3   473  INH473      0.1520
      6  O5        36.2910   35.1190   21.4640 O.3   473  INH473     -0.3510
      7  C6        37.4740   33.5320   22.8360 C.3   473  INH473      0.0420
      8  O1        34.0210   34.9640   20.8250 O.3   473  INH473     -0.3690
      9  H2        33.6640   34.6410   21.6560 H     473  INH473      0.2120
     10  O2        33.4980   37.4870   22.0190 O.3   473  INH473     -0.3880
     11  H4        33.7140   38.4170   22.1220 H     473  INH473      0.2100
     12  O3        34.2390   36.8280   24.5860 O.3   473  INH473     -0.3900
     13  H6        33.7250   36.1620   25.3800 H     473  INH473      0.2100
     14  O4        36.7740   36.0440   24.1920 O.3   473  INH473     -0.3900
     15  H8        36.3850   36.6660   24.8110 H     473  INH473      0.2100
@<TRIPOS>BOND
     1     8     1    1
     2     8     9    1
     3     1     6    1
     4     1     2    1
     5     6     5    1
     6    10    11    1
     7    10     2    1
     8     2     3    1
     9     5     7    1
    10     5     4    1
    11     3     4    1
    12     3    12    1
    13     4    14    1
    14    14    15    1
    15    12    13    1
