@<TRIPOS>MOLECULE
/tmp/ewbell/vina_1uzv_1uzv_lig/vina/vina3.pdbqt
 15 15 0 0 0
SMALL
GASTEIGER

@<TRIPOS>ATOM
      1  C1        34.6420   36.3270   23.3710 C.3   473  INH473      0.2880
      2  C2        34.9200   35.0340   24.1310 C.3   473  INH473      0.2040
      3  C3        35.7920   34.1710   23.2870 C.3   473  INH473      0.1820
      4  C4        37.0470   34.8780   22.8430 C.3   473  INH473      0.1780
      5  C5        36.7320   36.1900   22.1720 C.3   473  INH473      0.1520
      6  O5        35.8580   36.9700   23.0400 O.3   473  INH473     -0.3510
      7  C6        37.9370   37.0180   21.8260 C.3   473  INH473      0.0420
      8  O1        33.8320   36.0310   22.2640 O.3   473  INH473     -0.3690
      9  H2        34.2250   36.4540   21.4960 H     473  INH473      0.2120
     10  O2        33.7520   34.3060   24.5190 O.3   473  INH473     -0.3880
     11  H4        33.0610   34.5060   23.8830 H     473  INH473      0.2100
     12  O3        36.1280   32.9970   24.0500 O.3   473  INH473     -0.3900
     13  H6        37.1900   32.7150   23.6890 H     473  INH473      0.2100
     14  O4        37.8410   35.0610   24.0160 O.3   473  INH473     -0.3900
     15  H8        37.4420   35.7660   24.5300 H     473  INH473      0.2100
@<TRIPOS>BOND
     1     9     8    1
     2     7     5    1
     3     5     4    1
     4     5     6    1
     5     8     1    1
     6     4     3    1
     7     4    14    1
     8     6     1    1
     9     3    12    1
    10     3     2    1
    11     1     2    1
    12    13    12    1
    13    11    10    1
    14    14    15    1
    15     2    10    1
