@<TRIPOS>MOLECULE
./ligand/2idz_lig.pdb
 83 88 0 0 0
SMALL
GASTEIGER

@<TRIPOS>ATOM
      1  C1        11.7670  -38.7720   10.5840 C.ar  1081  INH1081    -0.0376
      2  C2        11.7820  -36.3670   10.3100 C.ar  1081  INH1081    -0.0376
      3  C3         9.0210  -37.5630   12.8060 C.ar  1081  INH1081     0.0089
      4  C4        13.1480  -38.7110   10.4710 C.ar  1081  INH1081     0.0279
      5  C5        13.1550  -36.3580   10.2040 C.ar  1081  INH1081     0.0279
      6  C6         8.0940  -37.1470   13.6820 C.ar  1081  INH1081     0.1741
      7  C7         6.5960  -36.5540   11.9440 C.ar  1081  INH1081     0.1862
      8  C8        -2.0890  -27.8370   18.9800 C.ar  1081  INH1081     0.1205
      9  C9         0.2410  -27.4190   15.2270 C.ar  1081  INH1081     0.1004
     10  C10        7.4570  -36.9760   11.0040 C.ar  1081  INH1081     0.1059
     11  C11       11.0800  -37.5820   10.5630 C.ar  1081  INH1081    -0.0119
     12  C12        8.6620  -37.5250   11.4840 C.ar  1081  INH1081     0.0086
     13  C13       -0.5470  -26.6560   17.1100 C.ar  1081  INH1081     0.1473
     14  C14       -0.9720  -27.9430   16.9650 C.ar  1081  INH1081     0.1674
     15  C15       -0.9260  -25.9450   18.2380 C.ar  1081  INH1081     0.1472
     16  C16        7.0630  -36.9640    9.5200 C.2   1081  INH1081     0.2476
     17  C17       -1.3240  -30.9800   13.3960 C.3   1081  INH1081     0.1135
     18  C18        4.8590  -34.2740   15.0150 C.3   1081  INH1081     0.1184
     19  C19       -1.4050  -29.5600   13.9020 C.3   1081  INH1081     0.1285
     20  C20        5.9620  -34.6630   14.0670 C.3   1081  INH1081     0.1727
     21  C21       -0.1310  -31.5770   14.1780 C.3   1081  INH1081     0.1133
     22  C22        3.9670  -35.5360   14.9360 C.3   1081  INH1081     0.1176
     23  C23       -0.7480  -29.7150   15.2800 C.3   1081  INH1081     0.1667
     24  C24        6.0760  -36.1830   14.2930 C.3   1081  INH1081     0.2949
     25  C25        0.9900  -32.0130   13.2630 C.3   1081  INH1081     0.0836
     26  C26        2.7460  -35.3470   14.0320 C.3   1081  INH1081     0.0838
     27  C27        9.6090  -37.5350   10.5040 C.3   1081  INH1081     0.1064
     28  N1        13.8080  -37.5370   10.3050 N.ar  1081  INH1081    -0.2632
     29  N2        -1.7350  -28.5240   17.9010 N.ar  1081  INH1081    -0.2159
     30  N3        -1.6640  -26.5650   19.1640 N.ar  1081  INH1081    -0.2188
     31  N4         0.2130  -26.3580   16.0210 N.ar  1081  INH1081    -0.2306
     32  N5        -0.4440  -28.3990   15.8380 N.ar  1081  INH1081    -0.2855
     33  N6         6.9350  -36.6960   13.2520 N.ar  1081  INH1081    -0.1731
     34  N7        -0.5450  -24.6600   18.4300 N.pl3 1081  INH1081    -0.3413
     35  N8         5.9000  -36.4480    9.1680 N.am  1081  INH1081    -0.3252
     36  O1        -0.4610  -34.2130   10.5480 O.3   1081  INH1081    -0.4371
     37  O2         1.4830  -36.2270   11.7070 O.3   1081  INH1081    -0.4371
     38  O3         7.9030  -37.1750    8.6240 O.2   1081  INH1081    -0.2702
     39  O4         0.7080  -31.8620   10.2670 O.2   1081  INH1081    -0.5170
     40  O5         3.7210  -35.6590   10.4640 O.2   1081  INH1081    -0.5170
     41  O6         0.3510  -30.5480   15.0330 O.3   1081  INH1081    -0.3456
     42  O7         4.7450  -36.6010   14.3050 O.3   1081  INH1081    -0.3094
     43  O8        -2.4880  -31.6690   13.7950 O.3   1081  INH1081    -0.3864
     44  H1        -2.5360  -32.5010   13.3380 H     1081  INH1081     0.2100
     45  O9         5.4600  -34.1620   16.3420 O.3   1081  INH1081    -0.3862
     46  H2         5.1590  -33.3650   16.7610 H     1081  INH1081     0.2100
     47  O10       -2.7560  -29.0840   14.0090 O.3   1081  INH1081    -0.3847
     48  H3        -3.3460  -29.7100   13.6070 H     1081  INH1081     0.2101
     49  O11        7.1440  -33.8630   14.3140 O.3   1081  INH1081    -0.3803
     50  H4         6.8760  -32.9270   14.2820 H     1081  INH1081     0.2103
     51  O12        9.6510  -36.0100   10.6570 O.3   1081  INH1081    -0.3825
     52  O13        0.3850  -33.0500   12.5140 O.3   1081  INH1081    -0.3246
     53  O14        3.1720  -34.7980   12.7890 O.3   1081  INH1081    -0.3246
     54  O15        2.0930  -33.8330   10.8420 O.3   1081  INH1081    -0.2703
     55  P1         0.5740  -33.2050   10.9400 P.3   1081  INH1081     0.2182
     56  P2         2.6080  -35.2840   11.3880 P.3   1081  INH1081     0.2182
     57  H5        11.2520  -39.7160   10.6840 H     1081  INH1081     0.0636
     58  H6        11.2310  -35.4440   10.2000 H     1081  INH1081     0.0636
     59  H7         9.9940  -37.9080   13.1240 H     1081  INH1081     0.0680
     60  H8        13.7170  -39.6280   10.5170 H     1081  INH1081     0.0829
     61  H9        13.6940  -35.4360   10.0450 H     1081  INH1081     0.0829
     62  H10        8.2990  -37.1820   14.7420 H     1081  INH1081     0.1377
     63  H11        5.6520  -36.1100   11.6650 H     1081  INH1081     0.1385
     64  H12       -2.7240  -28.2990   19.7210 H     1081  INH1081     0.1048
     65  H13        0.7260  -27.4830   14.2640 H     1081  INH1081     0.1030
     66  H14       -1.2190  -31.0440   12.3030 H     1081  INH1081     0.0647
     67  H15        4.3250  -33.3360   14.8010 H     1081  INH1081     0.0649
     68  H16       -0.9280  -28.8220   13.2400 H     1081  INH1081     0.0665
     69  H17        5.7880  -34.4730   12.9980 H     1081  INH1081     0.0716
     70  H18       -0.4660  -32.4670   14.7310 H     1081  INH1081     0.0647
     71  H19        3.6380  -35.7580   15.9620 H     1081  INH1081     0.0648
     72  H20       -1.3800  -30.1710   16.0560 H     1081  INH1081     0.0866
     73  H21        6.5440  -36.5410   15.2220 H     1081  INH1081     0.1444
     74  H22        1.8640  -32.3700   13.8270 H     1081  INH1081     0.0591
     75  H23        1.3870  -31.1980   12.6390 H     1081  INH1081     0.0591
     76  H24        2.0320  -34.6630   14.5130 H     1081  INH1081     0.0591
     77  H25        2.2550  -36.3170   13.8620 H     1081  INH1081     0.0591
     78  H26        9.3370  -38.3330    9.7970 H     1081  INH1081     0.0694
     79  H27       -0.8340  -24.1880   19.2740 H     1081  INH1081     0.1438
     80  H28        0.0200  -24.1890   17.7370 H     1081  INH1081     0.1438
     81  H29        5.8500  -36.2900    8.1810 H     1081  INH1081     0.1453
     82  H30        5.1600  -36.2420    9.8080 H     1081  INH1081     0.1453
     83  H31        8.7650  -35.6660   10.6530 H     1081  INH1081     0.2107
@<TRIPOS>BOND
     1    81    35    1
     2    38    16    2
     3    35    16   am
     4    35    82    1
     5    16    10    1
     6    78    27    1
     7    61     5    1
     8    58     2    1
     9     5    28   ar
    10     5     2   ar
    11    39    55    2
    12    28     4   ar
    13     2    11   ar
    14    40    56    2
    15     4    60    1
    16     4     1   ar
    17    27    11    1
    18    27    51    1
    19    27    12    1
    20    36    55    1
    21    11     1   ar
    22     1    57    1
    23    83    51    1
    24    54    55    1
    25    54    56    1
    26    55    52    1
    27    10    12   ar
    28    10     7   ar
    29    56    37    1
    30    56    53    1
    31    12     3   ar
    32    63     7    1
    33     7    33   ar
    34    66    17    1
    35    52    25    1
    36    75    25    1
    37    53    26    1
    38     3    59    1
    39     3     6   ar
    40    69    20    1
    41    68    19    1
    42    33     6   ar
    43    33    24    1
    44    25    74    1
    45    25    21    1
    46    44    43    1
    47    17    43    1
    48    17    19    1
    49    17    21    1
    50    48    47    1
    51     6    62    1
    52    77    26    1
    53    19    47    1
    54    19    23    1
    55    26    76    1
    56    26    22    1
    57    20    24    1
    58    20    49    1
    59    20    18    1
    60    21    70    1
    61    21    41    1
    62    65     9    1
    63    50    49    1
    64    24    42    1
    65    24    73    1
    66    42    22    1
    67    67    18    1
    68    22    18    1
    69    22    71    1
    70    18    45    1
    71    41    23    1
    72     9    32   ar
    73     9    31   ar
    74    23    32    1
    75    23    72    1
    76    32    14   ar
    77    31    13   ar
    78    45    46    1
    79    14    13   ar
    80    14    29   ar
    81    13    15   ar
    82    80    34    1
    83    29     8   ar
    84    15    34    1
    85    15    30   ar
    86    34    79    1
    87     8    30   ar
    88     8    64    1
