@<TRIPOS>MOLECULE
/tmp/ewbell/vina_2idz_2idz_lig/vina/vina5.pdbqt
 67 72 0 0 0
SMALL
GASTEIGER

@<TRIPOS>ATOM
      1  O5        23.4290  -48.6380   24.5840 O.2   1081  INH1081    -0.6310
      2  P2        23.4750  -47.2170   24.1250 P.3   1081  INH1081     0.4010
      3  O2        22.3160  -46.5660   23.4240 O.3   1081  INH1081    -0.3070
      4  H         21.6280  -47.2280   23.2550 H     1081  INH1081     0.2220
      5  O14       23.8550  -46.2460   25.3210 O.3   1081  INH1081    -0.2940
      6  C26       24.0090  -44.8390   25.1620 C.3   1081  INH1081     0.2150
      7  C22       23.1730  -44.1240   26.2260 C.3   1081  INH1081     0.1800
      8  C18       21.6970  -44.5870   26.2430 C.3   1081  INH1081     0.1820
      9  C20       21.0490  -43.4480   25.4990 C.3   1081  INH1081     0.1980
     10  C24       21.8930  -42.2370   25.9410 C.3   1081  INH1081     0.2590
     11  O7        23.2010  -42.7120   25.8450 O.3   1081  INH1081    -0.3530
     12  O9        21.1720  -44.5550   27.6070 O.3   1081  INH1081    -0.3900
     13  H2        21.7090  -43.9830   28.1400 H     1081  INH1081     0.2100
     14  O11       19.6290  -43.4080   25.7790 O.3   1081  INH1081    -0.3880
     15  H4        19.4250  -44.1540   26.3710 H     1081  INH1081     0.2100
     16  N6        21.5130  -41.1330   25.0920 N.pl3 1081  INH1081    -0.3360
     17  C6        20.6920  -40.2750   25.6590 C.2   1081  INH1081     0.0940
     18  C3        20.1890  -39.2550   24.9470 C.2   1081  INH1081     0.0280
     19  C12       20.6150  -39.1570   23.6480 C.3   1081  INH1081    -0.0070
     20  C10       21.4330  -40.1080   23.0070 C.2   1081  INH1081     0.0560
     21  C7        21.8700  -41.1140   23.7820 C.2   1081  INH1081     0.1110
     22  C27       19.9040  -38.4400   22.7330 C.3   1081  INH1081     0.1850
     23  C11       19.8110  -36.9920   22.4810 C.3   1081  INH1081    -0.0230
     24  C1        19.9670  -36.4640   21.2220 C.2   1081  INH1081     0.0270
     25  C4        19.6960  -35.1130   21.0620 C.2   1081  INH1081     0.0880
     26  N1        19.2540  -34.3380   22.0850 N.pl3 1081  INH1081    -0.3750
     27  C5        19.0170  -34.8450   23.3150 C.2   1081  INH1081     0.0880
     28  H1        19.0950  -33.3440   21.9200 H     1081  INH1081     0.1640
     29  C2        19.2720  -36.1820   23.5240 C.2   1081  INH1081     0.0270
     30  O12       18.8160  -38.3240   23.8080 O.3   1081  INH1081    -0.3860
     31  H31       18.7250  -37.4160   24.0710 H     1081  INH1081     0.2100
     32  C16       21.9190  -39.9680   21.5580 C.2   1081  INH1081     0.2510
     33  O3        21.4450  -40.6700   20.6440 O.2   1081  INH1081    -0.2680
     34  N8        23.0380  -39.3100   21.3160 N.am  1081  INH1081    -0.3660
     35  H29       23.3680  -39.4740   20.3850 H     1081  INH1081     0.1590
     36  H30       23.4980  -38.7200   21.9790 H     1081  INH1081     0.1590
     37  O15       24.8750  -47.1000   23.2920 O.3   1081  INH1081    -0.1950
     38  P1        25.0660  -47.0020   21.6590 P.3   1081  INH1081     0.4010
     39  O4        25.6730  -45.6360   21.4600 O.2   1081  INH1081    -0.6310
     40  O1        25.6730  -48.2530   21.1030 O.3   1081  INH1081    -0.3070
     41  H         26.2520  -48.6540   21.7690 H     1081  INH1081     0.2220
     42  O13       23.5570  -47.0480   21.1510 O.3   1081  INH1081    -0.2940
     43  C25       23.0630  -48.0640   20.2970 C.3   1081  INH1081     0.2150
     44  C21       21.8120  -47.4330   19.7320 C.3   1081  INH1081     0.1800
     45  C17       22.1260  -46.1920   18.8630 C.3   1081  INH1081     0.1820
     46  C19       21.4300  -45.0650   19.5880 C.3   1081  INH1081     0.1980
     47  C23       20.3360  -45.8430   20.3320 C.3   1081  INH1081     0.2620
     48  O6        21.0020  -46.9790   20.8100 O.3   1081  INH1081    -0.3530
     49  O8        21.5040  -46.3760   17.6110 O.3   1081  INH1081    -0.3900
     50  H1        20.5720  -46.2110   17.6930 H     1081  INH1081     0.2100
     51  O10       20.8730  -44.0900   18.6930 O.3   1081  INH1081    -0.3880
     52  H3        20.3560  -43.4650   19.1870 H     1081  INH1081     0.2100
     53  N5        19.7170  -44.9880   21.3420 N.pl3 1081  INH1081    -0.2970
     54  C9        20.0600  -43.7220   21.6260 C.3   1081  INH1081     0.1880
     55  N4        19.1990  -43.2670   22.5250 N.pl3 1081  INH1081    -0.3460
     56  C13       18.2720  -44.2350   22.7620 C.2   1081  INH1081     0.1220
     57  H4        19.2260  -42.3470   22.9640 H     1081  INH1081     0.1670
     58  C14       18.6040  -45.3070   21.9870 C.2   1081  INH1081     0.1420
     59  C15       17.1560  -44.3150   23.5790 C.3   1081  INH1081     0.1310
     60  N2        17.8730  -46.4300   22.0200 N.pl3 1081  INH1081    -0.3360
     61  C8        16.8080  -46.4990   22.8110 C.3   1081  INH1081     0.1830
     62  H2        18.1330  -47.2280   21.4410 H     1081  INH1081     0.1680
     63  N3        16.4670  -45.4600   23.6080 N.3   1081  INH1081    -0.3370
     64  H3        15.6720  -45.5520   24.2400 H     1081  INH1081     0.1680
     65  N7        16.7710  -43.2770   24.3600 N.3   1081  INH1081    -0.3830
     66  H28       16.7760  -42.3360   23.9930 H     1081  INH1081     0.1570
     67  H27       16.4840  -43.4640   25.3090 H     1081  INH1081     0.1570
@<TRIPOS>BOND
     1    49    50    1
     2    49    45    1
     3    51    52    1
     4    51    46    1
     5    45    46    1
     6    45    44    1
     7    46    47    1
     8    44    43    1
     9    44    48    1
    10    43    42    1
    11    47    48    1
    12    47    53    1
    13    35    34    1
    14    33    32    2
    15    25    24    2
    16    25    26    1
    17    40    38    1
    18    40    41    1
    19    42    38    1
    20    24    23    1
    21    34    32   am
    22    34    36    1
    23    53    54    1
    24    53    58    1
    25    62    60    1
    26    39    38    2
    27    32    20    1
    28    54    55    1
    29    38    37    1
    30    28    26    1
    31    58    60    1
    32    58    56    2
    33    60    61    1
    34    26    27    1
    35    23    22    1
    36    23    29    1
    37    55    56    1
    38    55    57    1
    39    22    19    1
    40    22    30    1
    41    56    59    1
    42    61    63    1
    43    20    19    1
    44    20    21    2
    45     4     3    1
    46    37     2    1
    47    27    29    2
    48     3     2    1
    49    59    63    1
    50    59    65    1
    51    63    64    1
    52    19    18    1
    53    21    16    1
    54    30    31    1
    55    66    65    1
    56     2     1    2
    57     2     5    1
    58    65    67    1
    59    18    17    2
    60    16    17    1
    61    16    10    1
    62     6     5    1
    63     6     7    1
    64     9    14    1
    65     9    10    1
    66     9     8    1
    67    14    15    1
    68    11    10    1
    69    11     7    1
    70     7     8    1
    71     8    12    1
    72    12    13    1
