@<TRIPOS>MOLECULE
/tmp/ewbell/vina_2idz_2idz_lig/vina/vina1.pdbqt
 67 72 0 0 0
SMALL
GASTEIGER

@<TRIPOS>ATOM
      1  O5        23.1350  -42.9410   26.8780 O.2   1081  INH1081    -0.6310
      2  P2        23.1470  -41.6010   26.2150 P.3   1081  INH1081     0.4010
      3  O2        23.3080  -41.4480   24.7300 O.3   1081  INH1081    -0.3070
      4  H         24.2510  -41.4120   24.5090 H     1081  INH1081     0.2220
      5  O14       21.8530  -40.7670   26.5970 O.3   1081  INH1081    -0.2940
      6  C26       20.5600  -41.3490   26.7210 C.3   1081  INH1081     0.2150
      7  C22       19.6470  -40.7660   25.6380 C.3   1081  INH1081     0.1800
      8  C18       18.2410  -41.4120   25.6250 C.3   1081  INH1081     0.1820
      9  C20       18.3910  -42.3620   24.4660 C.3   1081  INH1081     0.1980
     10  C24       19.3230  -41.5860   23.5160 C.3   1081  INH1081     0.2590
     11  O7        20.3050  -41.0890   24.3730 O.3   1081  INH1081    -0.3530
     12  O9        17.2350  -40.4250   25.2370 O.3   1081  INH1081    -0.3900
     13  H2        17.3490  -39.6360   25.7530 H     1081  INH1081     0.2100
     14  O11       17.0900  -42.7440   23.9570 O.3   1081  INH1081    -0.3880
     15  H4        16.4630  -42.7110   24.7020 H     1081  INH1081     0.2100
     16  N6        19.7310  -42.5100   22.4850 N.pl3 1081  INH1081    -0.3360
     17  C6        19.8120  -43.7610   22.8830 C.2   1081  INH1081     0.0940
     18  C3        20.2720  -44.7040   22.0470 C.2   1081  INH1081     0.0280
     19  C12       20.5960  -44.2850   20.7830 C.3   1081  INH1081    -0.0070
     20  C10       20.5860  -42.9400   20.3660 C.2   1081  INH1081     0.0560
     21  C7        20.1420  -42.0540   21.2720 C.2   1081  INH1081     0.1110
     22  C27       21.4210  -45.0270   19.9930 C.3   1081  INH1081     0.1850
     23  C11       21.3030  -46.3970   19.4650 C.3   1081  INH1081    -0.0230
     24  C1        21.9830  -46.8040   18.3430 C.2   1081  INH1081     0.0270
     25  C4        21.9360  -48.1520   18.0250 C.2   1081  INH1081     0.0880
     26  N1        21.2840  -49.0560   18.8010 N.pl3 1081  INH1081    -0.3750
     27  C5        20.6710  -48.6990   19.9510 C.2   1081  INH1081     0.0880
     28  H1        21.2570  -50.0320   18.5070 H     1081  INH1081     0.1640
     29  C2        20.6900  -47.3700   20.3100 C.2   1081  INH1081     0.0270
     30  O12       22.0190  -45.5790   21.2930 O.3   1081  INH1081    -0.3860
     31  H31       22.8700  -45.1860   21.4430 H     1081  INH1081     0.2100
     32  C16       20.9310  -42.4930   18.9380 C.2   1081  INH1081     0.2510
     33  O3        22.1080  -42.2700   18.5940 O.2   1081  INH1081    -0.2680
     34  N8        19.9630  -42.0650   18.1480 N.am  1081  INH1081    -0.3660
     35  H29       20.3270  -41.5980   17.3410 H     1081  INH1081     0.1590
     36  H30       18.9890  -42.1940   18.3320 H     1081  INH1081     0.1590
     37  O15       24.2330  -40.7310   27.0710 O.3   1081  INH1081    -0.1950
     38  P1        25.4800  -39.8290   26.4850 P.3   1081  INH1081     0.4010
     39  O4        26.0010  -39.1180   27.7080 O.2   1081  INH1081    -0.6310
     40  O1        26.3560  -40.6340   25.5740 O.3   1081  INH1081    -0.3070
     41  H         26.3780  -41.5540   25.8780 H     1081  INH1081     0.2220
     42  O13       24.7260  -38.8250   25.5040 O.3   1081  INH1081    -0.2940
     43  C25       25.4000  -38.0490   24.5300 C.3   1081  INH1081     0.2150
     44  C21       24.6330  -38.3750   23.2700 C.3   1081  INH1081     0.1800
     45  C17       25.0960  -37.5200   22.0670 C.3   1081  INH1081     0.1820
     46  C19       23.8600  -36.7410   21.6880 C.3   1081  INH1081     0.1980
     47  C23       22.7660  -37.6710   22.2310 C.3   1081  INH1081     0.2620
     48  O6        23.2590  -38.0720   23.4790 O.3   1081  INH1081    -0.3530
     49  O8        25.4180  -38.4000   21.0130 O.3   1081  INH1081    -0.3900
     50  H1        26.3620  -38.4260   20.8990 H     1081  INH1081     0.2100
     51  O10       23.7380  -36.5500   20.2690 O.3   1081  INH1081    -0.3880
     52  H3        24.5580  -36.2240   19.9210 H     1081  INH1081     0.2100
     53  N5        21.4810  -36.9740   22.2420 N.pl3 1081  INH1081    -0.2970
     54  C9        20.4080  -37.2800   21.4950 C.3   1081  INH1081     0.1880
     55  N4        19.4200  -36.4800   21.8700 N.pl3 1081  INH1081    -0.3460
     56  C13       19.8590  -35.7080   22.9010 C.2   1081  INH1081     0.1220
     57  H4        18.4880  -36.4500   21.4560 H     1081  INH1081     0.1670
     58  C14       21.1570  -36.0520   23.1370 C.2   1081  INH1081     0.1420
     59  C15       19.2710  -34.7230   23.6790 C.3   1081  INH1081     0.1310
     60  N2        21.8660  -35.4400   24.0960 N.pl3 1081  INH1081    -0.3360
     61  C8        21.2960  -34.4940   24.8330 C.3   1081  INH1081     0.1830
     62  H2        22.8380  -35.7010   24.2600 H     1081  INH1081     0.1680
     63  N3        20.0160  -34.1150   24.6090 N.3   1081  INH1081    -0.3370
     64  H3        19.6140  -33.3550   25.1570 H     1081  INH1081     0.1680
     65  N7        17.9820  -34.3510   23.5000 N.3   1081  INH1081    -0.3830
     66  H28       17.4220  -34.0620   24.2890 H     1081  INH1081     0.1570
     67  H27       17.5960  -34.3700   22.5670 H     1081  INH1081     0.1570
@<TRIPOS>BOND
     1    35    34    1
     2    25    24    2
     3    25    26    1
     4    34    36    1
     5    34    32   am
     6    24    23    1
     7    28    26    1
     8    33    32    2
     9    26    27    1
    10    32    20    1
    11    23    22    1
    12    23    29    1
    13    52    51    1
    14    27    29    2
    15    22    19    1
    16    22    30    1
    17    51    46    1
    18    20    19    1
    19    20    21    2
    20    19    18    1
    21    50    49    1
    22    49    45    1
    23    21    16    1
    24    30    31    1
    25    57    55    1
    26    54    55    1
    27    54    53    1
    28    46    45    1
    29    46    47    1
    30    55    56    1
    31    18    17    2
    32    45    44    1
    33    47    53    1
    34    47    48    1
    35    53    58    1
    36    16    17    1
    37    16    10    1
    38    67    65    1
    39    56    58    2
    40    56    59    1
    41    58    60    1
    42    44    48    1
    43    44    43    1
    44    65    59    1
    45    65    66    1
    46    10    11    1
    47    10     9    1
    48    59    63    1
    49    14     9    1
    50    14    15    1
    51    60    62    1
    52    60    61    1
    53    11     7    1
    54     9     8    1
    55     4     3    1
    56    43    42    1
    57    63    61    1
    58    63    64    1
    59     3     2    1
    60    12     8    1
    61    12    13    1
    62    42    38    1
    63    40    41    1
    64    40    38    1
    65     8     7    1
    66     7     6    1
    67     2     5    1
    68     2     1    2
    69     2    37    1
    70    38    37    1
    71    38    39    2
    72     5     6    1
