@<TRIPOS>MOLECULE
/tmp/ewbell/vina_2idz_2idz_lig/vina/vina2.pdbqt
 67 72 0 0 0
SMALL
GASTEIGER

@<TRIPOS>ATOM
      1  O5         5.1230  -27.1380    6.9330 O.2   1081  INH1081    -0.6310
      2  P2         5.0590  -27.0290    8.4220 P.3   1081  INH1081     0.4010
      3  O2         5.7980  -25.9600    9.1770 O.3   1081  INH1081    -0.3070
      4  H          5.8210  -25.1480    8.6470 H     1081  INH1081     0.2220
      5  O14        3.5560  -26.9490    8.9220 O.3   1081  INH1081    -0.2940
      6  C26        2.4440  -26.8780    8.0350 C.3   1081  INH1081     0.2150
      7  C22        1.6000  -28.1450    8.1950 C.3   1081  INH1081     0.1800
      8  C18        0.0990  -27.9100    7.9000 C.3   1081  INH1081     0.1820
      9  C20       -0.4400  -27.8180    9.3030 C.3   1081  INH1081     0.1980
     10  C24        0.4520  -28.8140   10.0700 C.3   1081  INH1081     0.2590
     11  O7         1.7320  -28.5140    9.6030 O.3   1081  INH1081    -0.3530
     12  O9        -0.4910  -29.1030    7.2960 O.3   1081  INH1081    -0.3900
     13  H2        -1.3450  -28.8900    6.9420 H     1081  INH1081     0.2100
     14  O11       -1.8680  -28.0620    9.3100 O.3   1081  INH1081    -0.3880
     15  H4        -2.0200  -28.8980    9.7870 H     1081  INH1081     0.2100
     16  N6         0.1830  -28.6190   11.4740 N.pl3 1081  INH1081    -0.3360
     17  C6         0.6040  -27.4660   11.9500 C.2   1081  INH1081     0.0940
     18  C3         0.5010  -27.2020   13.2610 C.2   1081  INH1081     0.0280
     19  C12       -0.0940  -28.1690   14.0270 C.3   1081  INH1081    -0.0070
     20  C10       -0.4810  -29.4350   13.5470 C.2   1081  INH1081     0.0560
     21  C7        -0.3160  -29.6320   12.2290 C.2   1081  INH1081     0.1110
     22  C27        0.0940  -28.2040   15.3760 C.3   1081  INH1081     0.1850
     23  C11       -0.4170  -27.3470   16.4590 C.3   1081  INH1081    -0.0230
     24  C1        -1.0620  -27.8690   17.5550 C.2   1081  INH1081     0.0270
     25  C4        -1.3550  -26.9990   18.5940 C.2   1081  INH1081     0.0880
     26  N1        -0.9910  -25.6910   18.5670 N.pl3 1081  INH1081    -0.3750
     27  C5        -0.2890  -25.1660   17.5380 C.2   1081  INH1081     0.0880
     28  H1        -1.2550  -25.0880   19.3460 H     1081  INH1081     0.1640
     29  C2         0.0260  -25.9910   16.4810 C.2   1081  INH1081     0.0270
     30  O12        1.2520  -27.2250   15.1470 O.3   1081  INH1081    -0.3860
     31  H31        0.9210  -26.4310   14.7430 H     1081  INH1081     0.2100
     32  C16       -1.1680  -30.4980   14.4170 C.2   1081  INH1081     0.2510
     33  O3        -0.5670  -31.5290   14.7770 O.2   1081  INH1081    -0.2680
     34  N8        -2.4810  -30.4680   14.5520 N.am  1081  INH1081    -0.3660
     35  H29       -2.8310  -31.3200   14.9440 H     1081  INH1081     0.1590
     36  H30       -3.0540  -29.6900   14.2940 H     1081  INH1081     0.1590
     37  O15        5.3900  -28.5360    8.9580 O.3   1081  INH1081    -0.1950
     38  P1         5.4940  -29.0450   10.5220 P.3   1081  INH1081     0.4010
     39  O4         6.5470  -28.1420   11.1130 O.2   1081  INH1081    -0.6310
     40  O1         4.1370  -29.2220   11.1300 O.3   1081  INH1081    -0.3070
     41  H          3.7210  -28.3540   11.2500 H     1081  INH1081     0.2220
     42  O13        6.0350  -30.5330   10.3460 O.3   1081  INH1081    -0.2940
     43  C25        7.3350  -30.9300   10.7400 C.3   1081  INH1081     0.2150
     44  C21        7.0740  -31.6480   12.0440 C.3   1081  INH1081     0.1800
     45  C17        7.4690  -33.1420   11.9770 C.3   1081  INH1081     0.1820
     46  C19        6.1660  -33.8650   12.2160 C.3   1081  INH1081     0.1980
     47  C23        5.3920  -32.7960   13.0000 C.3   1081  INH1081     0.2620
     48  O6         5.6780  -31.6080   12.3150 O.3   1081  INH1081    -0.3530
     49  O8         8.3370  -33.4060   13.0570 O.3   1081  INH1081    -0.3900
     50  H1         7.8660  -33.2990   13.8750 H     1081  INH1081     0.2100
     51  O10        6.3310  -35.0690   12.9820 O.3   1081  INH1081    -0.3880
     52  H3         5.7660  -35.0400   13.7440 H     1081  INH1081     0.2100
     53  N5         3.9800  -33.1650   13.0840 N.pl3 1081  INH1081    -0.2970
     54  C9         3.3630  -33.7000   14.1500 C.3   1081  INH1081     0.1880
     55  N4         2.0740  -33.7930   13.8600 N.pl3 1081  INH1081    -0.3460
     56  C13        1.8700  -33.2560   12.6260 C.2   1081  INH1081     0.1220
     57  H4         1.3550  -34.1980   14.4600 H     1081  INH1081     0.1670
     58  C14        3.0840  -32.8430   12.1620 C.2   1081  INH1081     0.1420
     59  C15        0.7490  -33.0740   11.8320 C.3   1081  INH1081     0.1310
     60  N2         3.2010  -32.2820   10.9500 N.pl3 1081  INH1081    -0.3360
     61  C8         2.1220  -32.1170   10.1950 C.3   1081  INH1081     0.1830
     62  H2         4.1150  -31.9830   10.6110 H     1081  INH1081     0.1680
     63  N3         0.9070  -32.5360   10.6180 N.3   1081  INH1081    -0.3370
     64  H3         0.0990  -32.4400   10.0030 H     1081  INH1081     0.1680
     65  N7        -0.4840  -33.4510   12.2470 N.3   1081  INH1081    -0.3830
     66  H28       -1.2660  -32.8180   12.1570 H     1081  INH1081     0.1570
     67  H27       -0.6010  -34.3710   12.6470 H     1081  INH1081     0.1570
@<TRIPOS>BOND
     1     1     2    2
     2    13    12    1
     3    12     8    1
     4     8     7    1
     5     8     9    1
     6     6     7    1
     7     6     5    1
     8     7    11    1
     9     2     5    1
    10     2    37    1
    11     2     3    1
    12     4     3    1
    13    37    38    1
    14     9    14    1
    15     9    10    1
    16    14    15    1
    17    11    10    1
    18    64    63    1
    19    10    16    1
    20    61    63    1
    21    61    60    1
    22    42    38    1
    23    42    43    1
    24    38    39    2
    25    38    40    1
    26    62    60    1
    27    63    59    1
    28    43    44    1
    29    60    58    1
    30    40    41    1
    31    16    17    1
    32    16    21    1
    33    59    65    1
    34    59    56    1
    35    17    18    2
    36    45    44    1
    37    45    46    1
    38    45    49    1
    39    44    48    1
    40    66    65    1
    41    58    56    2
    42    58    53    1
    43    46    51    1
    44    46    47    1
    45    21    20    2
    46    65    67    1
    47    48    47    1
    48    56    55    1
    49    51    52    1
    50    47    53    1
    51    49    50    1
    52    53    54    1
    53    18    19    1
    54    20    19    1
    55    20    32    1
    56    55    54    1
    57    55    57    1
    58    19    22    1
    59    36    34    1
    60    32    34   am
    61    32    33    2
    62    34    35    1
    63    31    30    1
    64    30    22    1
    65    22    23    1
    66    23    29    1
    67    23    24    1
    68    29    27    2
    69    27    26    1
    70    24    25    2
    71    26    25    1
    72    26    28    1
