@<TRIPOS>MOLECULE
/tmp/ewbell/vina_2idz_2idz_lig/vina/vina4.pdbqt
 67 72 0 0 0
SMALL
GASTEIGER

@<TRIPOS>ATOM
      1  O5         3.1220  -31.7960    9.6720 O.2   1081  INH1081    -0.6310
      2  P2         1.9090  -32.1200   10.4830 P.3   1081  INH1081     0.4010
      3  O2         1.8010  -31.7610   11.9380 O.3   1081  INH1081    -0.3070
      4  H          0.9810  -31.2660   12.0890 H     1081  INH1081     0.2220
      5  O14        0.5990  -31.5440    9.7990 O.3   1081  INH1081    -0.2940
      6  C26        0.5430  -31.1520    8.4310 C.3   1081  INH1081     0.2150
      7  C22        0.2220  -29.6570    8.3550 C.3   1081  INH1081     0.1800
      8  C18        1.4900  -28.7700    8.3340 C.3   1081  INH1081     0.1820
      9  C20        1.5240  -28.3130    9.7690 C.3   1081  INH1081     0.1980
     10  C24        0.0270  -28.1940   10.1170 C.3   1081  INH1081     0.2590
     11  O7        -0.5150  -29.3640    9.5840 O.3   1081  INH1081    -0.3530
     12  O9         1.2620  -27.5810    7.5160 O.3   1081  INH1081    -0.3900
     13  H2         1.9680  -26.9620    7.6530 H     1081  INH1081     0.2100
     14  O11        2.3330  -27.1200    9.8980 O.3   1081  INH1081    -0.3880
     15  H4         3.0300  -27.3070   10.5530 H     1081  INH1081     0.2100
     16  N6        -0.0550  -28.0030   11.5450 N.pl3 1081  INH1081    -0.3360
     17  C6        -0.0260  -26.7430   11.9230 C.2   1081  INH1081     0.0940
     18  C3        -0.0000  -26.4330   13.2280 C.2   1081  INH1081     0.0280
     19  C12       -0.0490  -27.4880   14.1000 C.3   1081  INH1081    -0.0070
     20  C10       -0.0040  -28.8410   13.7130 C.2   1081  INH1081     0.0560
     21  C7        -0.0010  -29.0660   12.3890 C.2   1081  INH1081     0.1110
     22  C27        0.3620  -27.3450   15.3920 C.3   1081  INH1081     0.1850
     23  C11       -0.3090  -26.7850   16.5770 C.3   1081  INH1081    -0.0230
     24  C1        -0.9270  -27.5860   17.5070 C.2   1081  INH1081     0.0270
     25  C4        -1.3820  -26.9790   18.6670 C.2   1081  INH1081     0.0880
     26  N1        -1.1970  -25.6560   18.9110 N.pl3 1081  INH1081    -0.3750
     27  C5        -0.5250  -24.8580   18.0520 C.2   1081  INH1081     0.0880
     28  H1        -1.5750  -25.2530   19.7690 H     1081  INH1081     0.1640
     29  C2        -0.0550  -25.4150   16.8840 C.2   1081  INH1081     0.0270
     30  O12        0.8270  -25.9390   14.9900 O.3   1081  INH1081    -0.3860
     31  H31        0.0860  -25.3460   14.9980 H     1081  INH1081     0.2100
     32  C16       -0.0830  -30.0100   14.7050 C.2   1081  INH1081     0.2510
     33  O3         0.8540  -30.8220   14.8270 O.2   1081  INH1081    -0.2680
     34  N8        -1.2530  -30.3320   15.2270 N.am  1081  INH1081    -0.3660
     35  H29       -1.2230  -31.2290   15.6710 H     1081  INH1081     0.1590
     36  H30       -2.0660  -29.7520   15.1840 H     1081  INH1081     0.1590
     37  O15        1.6330  -33.7030   10.1920 O.3   1081  INH1081    -0.1950
     38  P1         1.4110  -34.9030   11.2990 P.3   1081  INH1081     0.4010
     39  O4         0.1290  -34.5090   11.9880 O.2   1081  INH1081    -0.6310
     40  O1         1.6290  -36.2550   10.6910 O.3   1081  INH1081    -0.3070
     41  H          0.9510  -36.8670   11.0160 H     1081  INH1081     0.2220
     42  O13        2.6710  -34.7030   12.2540 O.3   1081  INH1081    -0.2940
     43  C25        2.5930  -34.8150   13.6630 C.3   1081  INH1081     0.2150
     44  C21        4.0070  -35.1920   14.0370 C.3   1081  INH1081     0.1800
     45  C17        4.8260  -33.9740   14.5250 C.3   1081  INH1081     0.1820
     46  C19        5.9470  -33.8720   13.5190 C.3   1081  INH1081     0.1980
     47  C23        6.0130  -35.3240   13.0260 C.3   1081  INH1081     0.2620
     48  O6         4.6690  -35.6880   12.8790 O.3   1081  INH1081    -0.3530
     49  O8         5.3750  -34.3010   15.7830 O.3   1081  INH1081    -0.3900
     50  H1         5.6060  -35.2230   15.7970 H     1081  INH1081     0.2100
     51  O10        7.1880  -33.4550   14.1100 O.3   1081  INH1081    -0.3880
     52  H3         7.8460  -34.1240   13.9720 H     1081  INH1081     0.2100
     53  N5         6.8360  -35.4030   11.8210 N.pl3 1081  INH1081    -0.2970
     54  C9         6.8770  -34.4990   10.8290 C.3   1081  INH1081     0.1880
     55  N4         7.8140  -34.8850    9.9760 N.pl3 1081  INH1081    -0.3460
     56  C13        8.4080  -36.0070   10.4660 C.2   1081  INH1081     0.1220
     57  H4         8.0510  -34.4190    9.1000 H     1081  INH1081     0.1670
     58  C14        7.7910  -36.3050   11.6450 C.2   1081  INH1081     0.1420
     59  C15        9.4330  -36.8240   10.0170 C.3   1081  INH1081     0.1310
     60  N2         8.1560  -37.3800   12.3580 N.pl3 1081  INH1081    -0.3360
     61  C8         9.1350  -38.1610   11.9160 C.3   1081  INH1081     0.1830
     62  H2         7.6840  -37.5970   13.2360 H     1081  INH1081     0.1680
     63  N3         9.7520  -37.9030   10.7400 N.3   1081  INH1081    -0.3370
     64  H3        10.4700  -38.5420   10.3990 H     1081  INH1081     0.1680
     65  N7        10.0910  -36.5690    8.8610 N.3   1081  INH1081    -0.3830
     66  H28       10.7110  -35.7750    8.7940 H     1081  INH1081     0.1570
     67  H27        9.9450  -37.1840    8.0740 H     1081  INH1081     0.1570
@<TRIPOS>BOND
     1    12    13    1
     2    12     8    1
     3    67    65    1
     4     8     7    1
     5     8     9    1
     6     7     6    1
     7     7    11    1
     8     6     5    1
     9    66    65    1
    10    65    59    1
    11    57    55    1
    12    11    10    1
    13     1     2    2
    14     9    14    1
    15     9    10    1
    16     5     2    1
    17    14    15    1
    18    55    56    1
    19    55    54    1
    20    59    56    1
    21    59    63    1
    22    10    16    1
    23    37     2    1
    24    37    38    1
    25    64    63    1
    26    56    58    2
    27     2     3    1
    28    40    41    1
    29    40    38    1
    30    63    61    1
    31    54    53    1
    32    38    39    2
    33    38    42    1
    34    16    17    1
    35    16    21    1
    36    58    53    1
    37    58    60    1
    38    53    47    1
    39    61    60    1
    40    17    18    2
    41     3     4    1
    42    42    43    1
    43    60    62    1
    44    21    20    2
    45    48    47    1
    46    48    44    1
    47    47    46    1
    48    18    19    1
    49    46    51    1
    50    46    45    1
    51    43    44    1
    52    20    19    1
    53    20    32    1
    54    52    51    1
    55    44    45    1
    56    19    22    1
    57    45    49    1
    58    32    33    2
    59    32    34   am
    60    30    31    1
    61    30    22    1
    62    36    34    1
    63    34    35    1
    64    22    23    1
    65    49    50    1
    66    23    29    1
    67    23    24    1
    68    29    27    2
    69    24    25    2
    70    27    26    1
    71    25    26    1
    72    26    28    1
