@<TRIPOS>MOLECULE
/tmp/ewbell/vina_2idz_2idz_lig/vina/vina3.pdbqt
 67 72 0 0 0
SMALL
GASTEIGER

@<TRIPOS>ATOM
      1  O5        26.0230  -44.3320   21.5530 O.2   1081  INH1081    -0.6310
      2  P2        24.5290  -44.3470   21.5550 P.3   1081  INH1081     0.4010
      3  O2        23.7430  -45.5900   21.2470 O.3   1081  INH1081    -0.3070
      4  H         23.6050  -46.0950   22.0630 H     1081  INH1081     0.2220
      5  O14       23.9570  -43.8050   22.9310 O.3   1081  INH1081    -0.2940
      6  C26       24.1790  -44.4570   24.1770 C.3   1081  INH1081     0.2150
      7  C22       24.9740  -43.5230   25.0920 C.3   1081  INH1081     0.1800
      8  C18       24.2880  -43.2920   26.4600 C.3   1081  INH1081     0.1820
      9  C20       23.6720  -41.9380   26.2280 C.3   1081  INH1081     0.1980
     10  C24       24.7070  -41.2510   25.3170 C.3   1081  INH1081     0.2590
     11  O7        25.0150  -42.2430   24.3850 O.3   1081  INH1081    -0.3530
     12  O9        25.2940  -43.1270   27.5080 O.3   1081  INH1081    -0.3900
     13  H2        24.9090  -43.3310   28.3510 H     1081  INH1081     0.2100
     14  O11       23.3720  -41.2990   27.4930 O.3   1081  INH1081    -0.3880
     15  H4        23.3060  -41.9990   28.1670 H     1081  INH1081     0.2100
     16  N6        24.0960  -40.0370   24.8320 N.pl3 1081  INH1081    -0.3360
     17  C6        22.8760  -40.1960   24.3650 C.2   1081  INH1081     0.0940
     18  C3        22.2320  -39.1640   23.7980 C.2   1081  INH1081     0.0280
     19  C12       22.9030  -37.9690   23.7830 C.3   1081  INH1081    -0.0070
     20  C10       24.2350  -37.8010   24.2090 C.2   1081  INH1081     0.0560
     21  C7        24.8180  -38.8900   24.7360 C.2   1081  INH1081     0.1110
     22  C27       22.5480  -36.9820   22.9140 C.3   1081  INH1081     0.1850
     23  C11       21.5110  -35.9390   22.9860 C.3   1081  INH1081    -0.0230
     24  C1        21.3210  -35.1810   24.1160 C.2   1081  INH1081     0.0270
     25  C4        20.4350  -34.1180   24.0270 C.2   1081  INH1081     0.0880
     26  N1        19.8050  -33.7980   22.8680 N.pl3 1081  INH1081    -0.3750
     27  C5        20.0290  -34.4760   21.7210 C.2   1081  INH1081     0.0880
     28  H1        19.1420  -33.0220   22.8630 H     1081  INH1081     0.1640
     29  C2        20.9000  -35.5420   21.7590 C.2   1081  INH1081     0.0270
     30  O12       21.5170  -37.9700   22.3560 O.3   1081  INH1081    -0.3860
     31  H31       21.4440  -38.7160   22.9400 H     1081  INH1081     0.2100
     32  C16       24.9610  -36.4490   24.2060 C.2   1081  INH1081     0.2510
     33  O3        25.8290  -36.1800   23.3520 O.2   1081  INH1081    -0.2680
     34  N8        24.8810  -35.6730   25.2710 N.am  1081  INH1081    -0.3660
     35  H29       25.5620  -34.9400   25.2460 H     1081  INH1081     0.1590
     36  H30       24.2210  -35.8020   26.0110 H     1081  INH1081     0.1590
     37  O15       24.1060  -43.0740   20.6220 O.3   1081  INH1081    -0.1950
     38  P1        23.8800  -43.0570   18.9900 P.3   1081  INH1081     0.4010
     39  O4        24.5130  -41.7570   18.5640 O.2   1081  INH1081    -0.6310
     40  O1        24.2350  -44.3760   18.3760 O.3   1081  INH1081    -0.3070
     41  H         24.9460  -44.2500   17.7280 H     1081  INH1081     0.2220
     42  O13       22.2920  -42.9960   18.8800 O.3   1081  INH1081    -0.2940
     43  C25       21.5330  -41.8860   19.3220 C.3   1081  INH1081     0.2150
     44  C21       20.3910  -42.5470   20.0580 C.3   1081  INH1081     0.1800
     45  C17       20.6190  -42.5720   21.5880 C.3   1081  INH1081     0.1820
     46  C19       20.6590  -44.0450   21.9170 C.3   1081  INH1081     0.1980
     47  C23       19.8380  -44.6150   20.7530 C.3   1081  INH1081     0.2620
     48  O6        20.3020  -43.9040   19.6380 O.3   1081  INH1081    -0.3530
     49  O8        19.4840  -42.0020   22.2010 O.3   1081  INH1081    -0.3900
     50  H1        18.7100  -42.4950   21.9550 H     1081  INH1081     0.2100
     51  O10       20.0590  -44.3460   23.1870 O.3   1081  INH1081    -0.3880
     52  H3        19.1560  -44.6110   23.0570 H     1081  INH1081     0.2100
     53  N5        19.9930  -46.0670   20.6980 N.pl3 1081  INH1081    -0.2970
     54  C9        19.2750  -46.9670   21.3900 C.3   1081  INH1081     0.1880
     55  N4        19.6510  -48.1720   20.9870 N.pl3 1081  INH1081    -0.3460
     56  C13       20.5680  -48.0270   19.9920 C.2   1081  INH1081     0.1220
     57  H4        19.3100  -49.0580   21.3600 H     1081  INH1081     0.1670
     58  C14       20.7530  -46.6880   19.8080 C.2   1081  INH1081     0.1420
     59  C15       21.2820  -48.9190   19.2080 C.3   1081  INH1081     0.1310
     60  N2        21.6220  -46.2350   18.8930 N.pl3 1081  INH1081    -0.3360
     61  C8        22.3050  -47.0980   18.1510 C.3   1081  INH1081     0.1830
     62  H2        21.7570  -45.2310   18.7680 H     1081  INH1081     0.1680
     63  N3        22.1600  -48.4320   18.3250 N.3   1081  INH1081    -0.3370
     64  H3        22.7280  -49.0750   17.7740 H     1081  INH1081     0.1680
     65  N7        21.1290  -50.2580   19.3370 N.3   1081  INH1081    -0.3830
     66  H28       21.4080  -50.7220   20.1900 H     1081  INH1081     0.1570
     67  H27       20.7360  -50.7780   18.5660 H     1081  INH1081     0.1570
@<TRIPOS>BOND
     1    41    40    1
     2    64    63    1
     3    61    63    1
     4    61    60    1
     5    63    59    1
     6    40    38    1
     7    39    38    2
     8    67    65    1
     9    62    60    1
    10    42    38    1
    11    42    43    1
    12    60    58    1
    13    38    37    1
    14    59    65    1
    15    59    56    1
    16    43    44    1
    17    65    66    1
    18    48    44    1
    19    48    47    1
    20    58    56    2
    21    58    53    1
    22    56    55    1
    23    44    45    1
    24    37     2    1
    25    53    47    1
    26    53    54    1
    27    47    46    1
    28    55    57    1
    29    55    54    1
    30     3     2    1
    31     3     4    1
    32     1     2    2
    33     2     5    1
    34    45    46    1
    35    45    49    1
    36    27    29    2
    37    27    26    1
    38    29    23    1
    39    46    51    1
    40    50    49    1
    41    30    22    1
    42    30    31    1
    43    28    26    1
    44    26    25    1
    45    22    23    1
    46    22    19    1
    47     5     6    1
    48    23    24    1
    49    52    51    1
    50    33    32    2
    51    19    18    1
    52    19    20    1
    53    18    17    2
    54    25    24    2
    55     6     7    1
    56    32    20    1
    57    32    34   am
    58    20    21    2
    59    17    16    1
    60    11     7    1
    61    11    10    1
    62    21    16    1
    63    16    10    1
    64     7     8    1
    65    35    34    1
    66    34    36    1
    67    10     9    1
    68     9     8    1
    69     9    14    1
    70     8    12    1
    71    14    15    1
    72    12    13    1
