@<TRIPOS>MOLECULE
./ligand/1q6g_lig.pdb
 45 46 0 0 0
SMALL
GASTEIGER

@<TRIPOS>ATOM
      1  C1         1.1870   29.7750   22.1500 C.3   493  INH493      0.1884
      2  C2         1.9250   28.4720   21.8370 C.3   493  INH493      0.1341
      3  C3         3.3150   28.8160   21.2980 C.3   493  INH493      0.1141
      4  C4         3.1750   29.6730   20.0350 C.3   493  INH493      0.1119
      5  C5         2.3450   30.9280   20.3450 C.3   493  INH493      0.1130
      6  C6         2.0200   31.7400   19.1030 C.3   493  INH493      0.0730
      7  O1         2.0370   27.6810   23.0130 O.3   493  INH493     -0.3841
      8  O2         4.0400   27.6270   21.0110 O.3   493  INH493     -0.3864
      9  O3         4.4660   30.0550   19.5680 O.3   493  INH493     -0.3865
     10  O4         1.0830   30.5740   20.9640 O.3   493  INH493     -0.3405
     11  O5         1.2280   30.9970   18.1870 O.3   493  INH493     -0.3924
     12  C7         0.9310   33.4610   25.9750 C.3   493  INH493      0.1854
     13  C8        -0.1930   32.4620   25.6790 C.3   493  INH493      0.1339
     14  C9         0.3650   31.2180   24.9720 C.3   493  INH493      0.1144
     15  C10        1.2010   31.6120   23.7380 C.3   493  INH493      0.1184
     16  C11        2.2670   32.6340   24.1580 C.3   493  INH493      0.1134
     17  C12        3.1460   33.1310   23.0170 C.3   493  INH493      0.0730
     18  O6         1.8300   32.9040   26.8780 O.3   493  INH493     -0.3649
     19  O7        -0.8090   32.0770   26.8980 O.3   493  INH493     -0.3841
     20  O8        -0.7070   30.3720   24.5790 O.3   493  INH493     -0.3864
     21  O9         1.8450   30.4390   23.1980 O.3   493  INH493     -0.3401
     22  O10        1.6390   33.7910   24.7650 O.3   493  INH493     -0.3407
     23  O11        2.3860   33.8270   22.0380 O.3   493  INH493     -0.3924
     24  H1         0.1680   29.5310   22.4860 H     493  INH493      0.0938
     25  H2         1.3660   27.9080   21.0750 H     493  INH493      0.0671
     26  H3         3.8620   29.3900   22.0600 H     493  INH493      0.0648
     27  H4         2.6670   29.0870   19.2550 H     493  INH493      0.0647
     28  H5         2.9240   31.5560   21.0380 H     493  INH493      0.0647
     29  H6         2.9590   32.0300   18.6100 H     493  INH493      0.0584
     30  H7         1.4680   32.6440   19.4010 H     493  INH493      0.0584
     31  H8         2.4960   26.8740   22.8100 H     493  INH493      0.2101
     32  H9         4.9000   27.8530   20.6780 H     493  INH493      0.2100
     33  H10        4.3760   30.5860   18.7850 H     493  INH493      0.2100
     34  H11        1.6980   30.2140   17.9240 H     493  INH493      0.2095
     35  H12        0.4970   34.3760   26.4050 H     493  INH493      0.0935
     36  H13       -0.9400   32.9410   25.0290 H     493  INH493      0.0671
     37  H14        1.0110   30.6720   25.6750 H     493  INH493      0.0648
     38  H15        0.5450   32.0560   22.9740 H     493  INH493      0.0651
     39  H16        2.9160   32.1500   24.9020 H     493  INH493      0.0647
     40  H17        3.6360   32.2690   22.5420 H     493  INH493      0.0584
     41  H18        3.9110   33.8090   23.4240 H     493  INH493      0.0584
     42  H19        2.5240   33.5270   27.0580 H     493  INH493      0.2126
     43  H20       -1.1540   32.8470   27.3350 H     493  INH493      0.2101
     44  H21       -1.2180   30.1330   25.3430 H     493  INH493      0.2100
     45  H22        1.9590   34.5740   22.4410 H     493  INH493      0.2095
@<TRIPOS>BOND
     1     1    21    1
     2     1    24    1
     3     1    10    1
     4     1     2    1
     5     2    25    1
     6     2     7    1
     7     2     3    1
     8     3    26    1
     9     3     8    1
    10     3     4    1
    11     4    27    1
    12     4     9    1
    13     4     5    1
    14     5    28    1
    15     5    10    1
    16     5     6    1
    17     6    30    1
    18     6    29    1
    19     6    11    1
    20     7    31    1
    21     8    32    1
    22     9    33    1
    23    11    34    1
    24    12    35    1
    25    12    22    1
    26    12    18    1
    27    12    13    1
    28    13    36    1
    29    13    19    1
    30    13    14    1
    31    14    37    1
    32    14    20    1
    33    14    15    1
    34    15    38    1
    35    15    21    1
    36    15    16    1
    37    16    39    1
    38    16    22    1
    39    16    17    1
    40    17    41    1
    41    17    40    1
    42    17    23    1
    43    18    42    1
    44    19    43    1
    45    20    44    1
    46    23    45    1
