@<TRIPOS>MOLECULE
/tmp/ewbell/vina_1q6g_1q6g_lig/vina/vina1.pdbqt
 31 32 0 0 0
SMALL
GASTEIGER

@<TRIPOS>ATOM
      1  O9         1.8740   30.4580   23.3410 O.3   493  INH493     -0.3480
      2  C1         1.2230   29.7390   22.3250 C.3   493  INH493      0.2920
      3  O4         1.0770   30.4940   21.1160 O.3   493  INH493     -0.3480
      4  C5         2.3180   30.8660   20.4660 C.3   493  INH493      0.1790
      5  C4         3.1840   29.6290   20.1850 C.3   493  INH493      0.1800
      6  C3         3.3690   28.8200   21.4740 C.3   493  INH493      0.1830
      7  C2         1.9990   28.4500   22.0450 C.3   493  INH493      0.2040
      8  C6         1.9500   31.6260   19.2020 C.3   493  INH493      0.1980
      9  O5         1.0840   30.8650   18.3710 O.3   493  INH493     -0.3980
     10  H11        1.4670   30.7860   17.5050 H     493  INH493      0.2090
     11  O3         4.4560   30.0360   19.6870 O.3   493  INH493     -0.3900
     12  H10        4.3350   30.6940   19.0110 H     493  INH493      0.2100
     13  O2         4.1280   27.6460   21.2150 O.3   493  INH493     -0.3900
     14  H9         4.6280   27.7620   20.4160 H     493  INH493      0.2100
     15  O1         2.1520   27.7030   23.2440 O.3   493  INH493     -0.3880
     16  H8         3.0570   27.7500   23.5330 H     493  INH493      0.2100
     17  C10        1.1520   31.5600   23.9300 C.3   493  INH493      0.1870
     18  C9         0.3500   31.0580   25.1470 C.3   493  INH493      0.1830
     19  C8        -0.2900   32.2300   25.9050 C.3   493  INH493      0.2040
     20  C7         0.7620   33.2920   26.2420 C.3   493  INH493      0.2880
     21  O10        1.4420   33.7200   25.0460 O.3   493  INH493     -0.3490
     22  C11        2.1460   32.6360   24.3910 C.3   493  INH493      0.1800
     23  O8        -0.6620   30.1570   24.7200 O.3   493  INH493     -0.3900
     24  H21       -0.3140   29.2730   24.7070 H     493  INH493      0.2100
     25  O7        -0.8730   31.7530   27.1080 O.3   493  INH493     -0.3880
     26  H20       -1.3490   30.9500   26.9320 H     493  INH493      0.2100
     27  O6         1.7020   32.7620   27.1200 O.3   493  INH493     -0.3690
     28  H19        2.2090   32.0940   26.6760 H     493  INH493      0.2120
     29  C12        2.9840   33.2390   23.2710 C.3   493  INH493      0.1980
     30  O11        2.1700   33.8670   22.2900 O.3   493  INH493     -0.3980
     31  H22        2.0890   33.2970   21.5330 H     493  INH493      0.2090
@<TRIPOS>BOND
     1    10     9    1
     2     9     8    1
     3    12    11    1
     4     8     4    1
     5    11     5    1
     6     5     4    1
     7     5     6    1
     8    14    13    1
     9     4     3    1
    10     3     2    1
    11    13     6    1
    12     6     7    1
    13    31    30    1
    14     7     2    1
    15     7    15    1
    16    30    29    1
    17     2     1    1
    18    15    16    1
    19    29    22    1
    20     1    17    1
    21    17    22    1
    22    17    18    1
    23    22    21    1
    24    24    23    1
    25    23    18    1
    26    21    20    1
    27    18    19    1
    28    19    20    1
    29    19    25    1
    30    20    27    1
    31    28    27    1
    32    26    25    1
