@<TRIPOS>MOLECULE
/tmp/ewbell/vina_1q6g_1q6g_lig/vina/vina4.pdbqt
 31 32 0 0 0
SMALL
GASTEIGER

@<TRIPOS>ATOM
      1  O9         1.4490   31.4110   24.8200 O.3   493  INH493     -0.3480
      2  C1         0.4270   31.1050   25.7340 C.3   493  INH493      0.2920
      3  O4         0.8050   30.0880   26.6700 O.3   493  INH493     -0.3480
      4  C5         1.8980   30.4370   27.5550 C.3   493  INH493      0.1790
      5  C4         1.5940   31.7350   28.3180 C.3   493  INH493      0.1800
      6  C3         1.2080   32.8420   27.3300 C.3   493  INH493      0.1830
      7  C2         0.0230   32.3770   26.4810 C.3   493  INH493      0.2040
      8  C6         2.1230   29.2510   28.4770 C.3   493  INH493      0.1980
      9  O5         3.4300   29.2650   29.0350 O.3   493  INH493     -0.3980
     10  H11        3.7790   30.1480   29.0020 H     493  INH493      0.2090
     11  O3         2.7410   32.1340   29.0630 O.3   493  INH493     -0.3900
     12  H10        3.0590   31.3980   29.5740 H     493  INH493      0.2100
     13  O2         0.8760   34.0340   28.0300 O.3   493  INH493     -0.3900
     14  H9         1.5930   34.2750   28.6030 H     493  INH493      0.2100
     15  O1        -0.3450   33.3900   25.5560 O.3   493  INH493     -0.3880
     16  H8        -1.0580   33.0780   25.0100 H     493  INH493      0.2100
     17  C10        1.2080   31.0880   23.4340 C.3   493  INH493      0.1870
     18  C9         1.5610   32.3040   22.5540 C.3   493  INH493      0.1830
     19  C8         1.4860   31.9430   21.0630 C.3   493  INH493      0.2040
     20  C7         2.3220   30.6930   20.7700 C.3   493  INH493      0.2880
     21  O10        1.9080   29.6040   21.6170 O.3   493  INH493     -0.3490
     22  C11        2.0880   29.8980   23.0250 C.3   493  INH493      0.1800
     23  O8         0.6690   33.3750   22.8310 O.3   493  INH493     -0.3900
     24  H21        0.7160   34.0150   22.1300 H     493  INH493      0.2100
     25  O7         1.9790   33.0260   20.2890 O.3   493  INH493     -0.3880
     26  H20        2.7610   32.7530   19.8250 H     493  INH493      0.2100
     27  O6         3.6660   30.9570   21.0120 O.3   493  INH493     -0.3690
     28  H19        3.7430   31.5660   21.7360 H     493  INH493      0.2120
     29  C12        1.8150   28.6180   23.8030 C.3   493  INH493      0.1980
     30  O11        0.4720   28.1840   23.6420 O.3   493  INH493     -0.3980
     31  H22        0.2110   27.6730   24.3990 H     493  INH493      0.2090
@<TRIPOS>BOND
     1    26    25    1
     2    25    19    1
     3    20    27    1
     4    20    19    1
     5    20    21    1
     6    27    28    1
     7    19    18    1
     8    21    22    1
     9    24    23    1
    10    18    23    1
    11    18    17    1
    12    22    17    1
    13    22    29    1
    14    17     1    1
    15    30    29    1
    16    30    31    1
    17     1     2    1
    18    16    15    1
    19    15     7    1
    20     2     7    1
    21     2     3    1
    22     7     6    1
    23     3     4    1
    24     6    13    1
    25     6     5    1
    26     4     5    1
    27     4     8    1
    28    13    14    1
    29     5    11    1
    30     8     9    1
    31    10     9    1
    32    11    12    1
