@<TRIPOS>MOLECULE
/tmp/ewbell/vina_1q6g_1q6g_lig/vina/vina5.pdbqt
 31 32 0 0 0
SMALL
GASTEIGER

@<TRIPOS>ATOM
      1  O9         1.4770   31.0270   25.0330 O.3   493  INH493     -0.3480
      2  C1         0.6520   30.5240   24.0150 C.3   493  INH493      0.2920
      3  O4         0.7880   31.2440   22.7830 O.3   493  INH493     -0.3480
      4  C5         2.0980   31.1710   22.1660 C.3   493  INH493      0.1790
      5  C4         2.5210   29.7110   21.9440 C.3   493  INH493      0.1800
      6  C3         2.4010   28.9300   23.2580 C.3   493  INH493      0.1830
      7  C2         0.9720   29.0450   23.7920 C.3   493  INH493      0.2040
      8  C6         2.0270   31.9660   20.8730 C.3   493  INH493      0.1980
      9  O5         3.3210   32.2060   20.3380 O.3   493  INH493     -0.3980
     10  H11        3.3250   33.0380   19.8790 H     493  INH493      0.2090
     11  O3         3.8670   29.6660   21.4790 O.3   493  INH493     -0.3900
     12  H10        4.3530   30.3970   21.8450 H     493  INH493      0.2100
     13  O2         2.7430   27.5650   23.0540 O.3   493  INH493     -0.3900
     14  H9         2.0860   27.0100   23.4570 H     493  INH493      0.2100
     15  O1         0.8460   28.3300   25.0140 O.3   493  INH493     -0.3880
     16  H8         1.5900   27.7470   25.1180 H     493  INH493      0.2100
     17  C10        0.8350   31.4170   26.2650 C.3   493  INH493      0.1870
     18  C9         1.6250   30.8470   27.4600 C.3   493  INH493      0.1830
     19  C8         1.0750   31.3850   28.7900 C.3   493  INH493      0.2040
     20  C7         1.0000   32.9150   28.7610 C.3   493  INH493      0.2880
     21  O10        0.2250   33.3560   27.6300 O.3   493  INH493     -0.3490
     22  C11        0.8060   32.9490   26.3670 C.3   493  INH493      0.1800
     23  O8         1.5520   29.4280   27.4540 O.3   493  INH493     -0.3900
     24  H21        2.2750   29.0710   27.9560 H     493  INH493      0.2100
     25  O7         1.9260   30.9790   29.8510 O.3   493  INH493     -0.3880
     26  H20        2.8230   30.9420   29.5420 H     493  INH493      0.2100
     27  O6         2.2800   33.4480   28.6550 O.3   493  INH493     -0.3690
     28  H19        2.8160   32.8810   28.1140 H     493  INH493      0.2120
     29  C12        0.0250   33.6380   25.2550 C.3   493  INH493      0.1980
     30  O11        0.8540   33.9290   24.1380 O.3   493  INH493     -0.3980
     31  H22        0.7190   34.8310   23.8700 H     493  INH493      0.2090
@<TRIPOS>BOND
     1    10     9    1
     2     9     8    1
     3     8     4    1
     4    11    12    1
     5    11     5    1
     6     5     4    1
     7     5     6    1
     8     4     3    1
     9     3     2    1
    10    13     6    1
    11    13    14    1
    12     6     7    1
    13     7     2    1
    14     7    15    1
    15    31    30    1
    16     2     1    1
    17    30    29    1
    18    15    16    1
    19     1    17    1
    20    29    22    1
    21    17    22    1
    22    17    18    1
    23    22    21    1
    24    23    18    1
    25    23    24    1
    26    18    19    1
    27    21    20    1
    28    28    27    1
    29    27    20    1
    30    20    19    1
    31    19    25    1
    32    26    25    1
