@<TRIPOS>MOLECULE
/tmp/ewbell/vina_1q6g_1q6g_lig/vina/vina3.pdbqt
 31 32 0 0 0
SMALL
GASTEIGER

@<TRIPOS>ATOM
      1  O9         1.6420   31.1540   23.2900 O.3   493  INH493     -0.3480
      2  C1         2.8860   31.1030   22.6400 C.3   493  INH493      0.2920
      3  O4         3.1140   29.8540   21.9740 O.3   493  INH493     -0.3480
      4  C5         2.2010   29.5550   20.8900 C.3   493  INH493      0.1790
      5  C4         2.1940   30.6850   19.8490 C.3   493  INH493      0.1800
      6  C3         1.9300   32.0280   20.5410 C.3   493  INH493      0.1830
      7  C2         2.9760   32.2520   21.6340 C.3   493  INH493      0.2040
      8  C6         2.6240   28.2180   20.3050 C.3   493  INH493      0.1980
      9  O5         2.6270   27.1950   21.2910 O.3   493  INH493     -0.3980
     10  H11        2.1350   26.4470   20.9730 H     493  INH493      0.2090
     11  O3         1.1820   30.4370   18.8780 O.3   493  INH493     -0.3900
     12  H10        0.6370   31.2100   18.7840 H     493  INH493      0.2100
     13  O2         1.9710   33.0870   19.5940 O.3   493  INH493     -0.3900
     14  H9         2.8350   33.4800   19.5950 H     493  INH493      0.2100
     15  O1         2.7420   33.4920   22.2900 O.3   493  INH493     -0.3880
     16  H8         3.1520   33.4790   23.1470 H     493  INH493      0.2100
     17  C10        1.6560   31.1380   24.7330 C.3   493  INH493      0.1870
     18  C9         1.0600   32.4560   25.2670 C.3   493  INH493      0.1830
     19  C8         0.8940   32.4050   26.7930 C.3   493  INH493      0.2040
     20  C7         0.1170   31.1510   27.2090 C.3   493  INH493      0.2880
     21  O10        0.7570   29.9710   26.6890 O.3   493  INH493     -0.3490
     22  C11        0.8100   29.9610   25.2400 C.3   493  INH493      0.1800
     23  O8         1.9030   33.5440   24.9150 O.3   493  INH493     -0.3900
     24  H21        1.3990   34.3490   24.9200 H     493  INH493      0.2100
     25  O7         0.1900   33.5570   27.2310 O.3   493  INH493     -0.3880
     26  H20        0.4890   34.3150   26.7430 H     493  INH493      0.2100
     27  O6        -1.1780   31.2110   26.7050 O.3   493  INH493     -0.3690
     28  H19       -1.4410   32.1190   26.6150 H     493  INH493      0.2120
     29  C12        1.3130   28.5910   24.8050 C.3   493  INH493      0.1980
     30  O11        0.7520   28.2000   23.5600 O.3   493  INH493     -0.3980
     31  H22        0.6180   27.2590   23.5540 H     493  INH493      0.2090
@<TRIPOS>BOND
     1    12    11    1
     2    11     5    1
     3    13    14    1
     4    13     6    1
     5     5     6    1
     6     5     4    1
     7     8     4    1
     8     8     9    1
     9     6     7    1
    10     4     3    1
    11    10     9    1
    12     7    15    1
    13     7     2    1
    14     3     2    1
    15    15    16    1
    16     2     1    1
    17     1    17    1
    18    31    30    1
    19    30    29    1
    20    17    22    1
    21    17    18    1
    22    29    22    1
    23    23    24    1
    24    23    18    1
    25    22    21    1
    26    18    19    1
    27    28    27    1
    28    21    20    1
    29    27    20    1
    30    26    25    1
    31    19    20    1
    32    19    25    1
