@<TRIPOS>MOLECULE
/tmp/ewbell/vina_1q6g_1q6g_lig/vina/vina2.pdbqt
 31 32 0 0 0
SMALL
GASTEIGER

@<TRIPOS>ATOM
      1  O9         2.3890   30.7820   23.4900 O.3   493  INH493     -0.3480
      2  C1         1.3290   30.2470   22.7420 C.3   493  INH493      0.2920
      3  O4         1.1540   30.9010   21.4780 O.3   493  INH493     -0.3480
      4  C5         2.2640   30.7690   20.5560 C.3   493  INH493      0.1790
      5  C4         2.6050   29.2910   20.3130 C.3   493  INH493      0.1800
      6  C3         2.8150   28.5790   21.6550 C.3   493  INH493      0.1830
      7  C2         1.5690   28.7520   22.5250 C.3   493  INH493      0.2040
      8  C6         1.8750   31.5000   19.2810 C.3   493  INH493      0.1980
      9  O5         1.1590   30.6520   18.3930 O.3   493  INH493     -0.3980
     10  H11        1.7510   30.3130   17.7330 H     493  INH493      0.2090
     11  O3         3.7890   29.1930   19.5270 O.3   493  INH493     -0.3900
     12  H10        3.5680   28.8680   18.6610 H     493  INH493      0.2100
     13  O2         3.0820   27.1990   21.4450 O.3   493  INH493     -0.3900
     14  H9         3.9780   27.0900   21.1490 H     493  INH493      0.2100
     15  O1         1.7500   28.1020   23.7760 O.3   493  INH493     -0.3880
     16  H8         1.6000   28.7220   24.4800 H     493  INH493      0.2100
     17  C10        2.0610   31.8030   24.4560 C.3   493  INH493      0.1870
     18  C9         1.0870   32.8160   23.8220 C.3   493  INH493      0.1830
     19  C8         0.5770   33.8170   24.8700 C.3   493  INH493      0.2040
     20  C7         0.0090   33.0790   26.0870 C.3   493  INH493      0.2880
     21  O10        0.9920   32.1760   26.6270 O.3   493  INH493     -0.3490
     22  C11        1.3900   31.1570   25.6770 C.3   493  INH493      0.1800
     23  O8         1.7370   33.5170   22.7710 O.3   493  INH493     -0.3900
     24  H21        1.2790   34.3320   22.6030 H     493  INH493      0.2100
     25  O7        -0.4410   34.6240   24.2960 O.3   493  INH493     -0.3880
     26  H20       -1.1690   34.0740   24.0310 H     493  INH493      0.2100
     27  O6        -1.1100   32.3440   25.7120 O.3   493  INH493     -0.3690
     28  H19       -1.8650   32.6430   26.2040 H     493  INH493      0.2120
     29  C12        2.2640   30.1510   26.4160 C.3   493  INH493      0.1980
     30  O11        1.6330   28.8810   26.5100 O.3   493  INH493     -0.3980
     31  H22        1.1850   28.8110   27.3450 H     493  INH493      0.2090
@<TRIPOS>BOND
     1    10     9    1
     2     9     8    1
     3    12    11    1
     4     8     4    1
     5    11     5    1
     6     5     4    1
     7     5     6    1
     8     4     3    1
     9    14    13    1
    10    13     6    1
    11     3     2    1
    12     6     7    1
    13     7     2    1
    14     7    15    1
    15    24    23    1
    16     2     1    1
    17    23    18    1
    18     1    17    1
    19    15    16    1
    20    18    17    1
    21    18    19    1
    22    26    25    1
    23    25    19    1
    24    17    22    1
    25    19    20    1
    26    22    29    1
    27    22    21    1
    28    27    20    1
    29    27    28    1
    30    20    21    1
    31    29    30    1
    32    30    31    1
