@<TRIPOS>MOLECULE
./ligand/1p1o_lig.pdb
 20 20 0 0 0
SMALL
GASTEIGER

@<TRIPOS>ATOM
      1  N1        13.5190    2.5360   16.9410 N.4   525  INH525      0.2303
      2  C1        14.6700    1.5780   17.0550 C.3   525  INH525      0.0998
      3  C2        14.8140    1.2690   18.5500 C.2   525  INH525      0.4045
      4  O1        13.9960    1.7570   19.3480 O.co2 525  INH525     -0.2399
      5  C3        16.0570    2.0870   16.6370 C.3   525  INH525      0.1148
      6  O2        15.7640    0.5270   18.8920 O.co2 525  INH525     -0.2399
      7  H1        14.4330    0.6710   16.4790 H     525  INH525      0.0989
      8  H2        16.8120    1.6810   17.3260 H     525  INH525      0.0587
      9  H3        16.0680    3.1860   16.6880 H     525  INH525      0.0587
     10  H4        12.6720    2.0810   17.2440 H     525  INH525      0.2003
     11  H5        13.4180    2.8280   15.9810 H     525  INH525      0.2003
     12  H6        13.6940    3.3420   17.5210 H     525  INH525      0.2003
     13  C4        16.5890    0.3950   14.8250 C.ar  525  INH525      0.3607
     14  C5        15.8780    1.6490   13.0980 C.ar  525  INH525      0.4409
     15  N2        16.3790    1.6670   15.2710 N.ar  525  INH525     -0.1448
     16  N3        16.2850    0.4170   13.5050 N.ar  525  INH525     -0.2398
     17  O3        16.9670   -0.5020   15.5150 O.2   525  INH525     -0.2436
     18  O4        15.5250    2.0420   12.0010 O.2   525  INH525     -0.2209
     19  O5        15.9150    2.4860   14.1900 O.2   525  INH525     -0.3160
     20  H7        16.3520   -0.3780   12.9020 H     525  INH525      0.1767
@<TRIPOS>BOND
     1     1    12    1
     2     1    10    1
     3     1     2    1
     4     1    11    1
     5     2     3    1
     6     2     5    1
     7     2     7    1
     8     3     4   ar
     9     3     6   ar
    10     5     8    1
    11     5     9    1
    12     5    15    1
    13    13    15   ar
    14    13    17    2
    15    13    16   ar
    16    14    16   ar
    17    14    19   ar
    18    14    18    2
    19    15    19   ar
    20    16    20    1
