@<TRIPOS>MOLECULE
/tmp/ewbell/vina_1p1o_1p1o_lig/vina/vina1.pdbqt
 18 18 0 0 0
SMALL
GASTEIGER

@<TRIPOS>ATOM
      1  C1        14.8180    1.6730   16.8830 C.3   525  INH525      0.3000
      2  N1        14.1630    3.0010   16.6280 N.4   525  INH525     -0.0640
      3  H6        14.7890    3.7420   16.9020 H     525  INH525      0.2750
      4  H4        13.3120    3.0640   17.1640 H     525  INH525      0.2750
      5  H5        13.9480    3.0870   15.6460 H     525  INH525      0.2750
      6  C2        14.6360    1.3950   18.3790 C.2   525  INH525      0.1730
      7  O1        15.3280    0.5140   18.9170 O.2   525  INH525     -0.6480
      8  O2        13.7850    2.0820   18.9900 O.3   525  INH525     -0.7750
      9  H         13.9220    2.3090   19.8890 H     525  INH525      0.1670
     10  C3        16.3340    1.5790   16.6600 C.3   525  INH525      0.2050
     11  N2        16.6470    1.4510   15.2350 N.ar  525  INH525     -0.1940
     12  C4        17.1180    0.3470   14.5870 C.ar  525  INH525      0.3510
     13  O3        17.7440   -0.5210   15.1140 O.2   525  INH525     -0.2440
     14  N3        16.7230    0.4840   13.2990 N.ar  525  INH525     -0.2510
     15  C5        16.0100    1.6260   13.1050 C.ar  525  INH525      0.3910
     16  H7        16.9320   -0.1750   12.5760 H     525  INH525      0.1760
     17  O5        15.9270    2.2800   14.3120 O.2   525  INH525     -0.1740
     18  O4        15.4970    2.0750   12.0960 O.2   525  INH525     -0.2360
@<TRIPOS>BOND
     1    18    15    2
     2    16    14    1
     3    15    14   ar
     4    15    17   ar
     5    14    12   ar
     6    17    11   ar
     7    12    13    2
     8    12    11   ar
     9    11    10    1
    10     5     2    1
    11     2     1    1
    12     2     3    1
    13     2     4    1
    14    10     1    1
    15     1     6    1
    16     6     7    2
    17     6     8    1
    18     8     9    1
