@<TRIPOS>MOLECULE
/tmp/ewbell/vina_1p1o_1p1o_lig/vina/vina2.pdbqt
 18 18 0 0 0
SMALL
GASTEIGER

@<TRIPOS>ATOM
      1  C1        15.8660    1.2310   16.4420 C.3   525  INH525      0.3000
      2  N1        15.4980   -0.0880   15.8240 N.4   525  INH525     -0.0640
      3  H6        16.0240   -0.2180   14.9720 H     525  INH525      0.2750
      4  H4        14.5120   -0.0970   15.6160 H     525  INH525      0.2750
      5  H5        15.7130   -0.8330   16.4690 H     525  INH525      0.2750
      6  C2        14.9160    1.4180   17.6310 C.2   525  INH525      0.1730
      7  O1        15.0980    0.7440   18.6590 O.2   525  INH525     -0.6480
      8  O2        13.9930    2.2540   17.4990 O.3   525  INH525     -0.7750
      9  H         13.2380    2.2100   18.0530 H     525  INH525      0.1670
     10  C3        15.6620    2.4920   15.5900 C.3   525  INH525      0.2050
     11  N2        16.1640    2.2920   14.2290 N.ar  525  INH525     -0.1940
     12  C4        17.1950    2.9490   13.6240 C.ar  525  INH525      0.3510
     13  O3        17.5570    4.0460   13.9220 O.2   525  INH525     -0.2440
     14  N3        17.6590    2.1020   12.6740 N.ar  525  INH525     -0.2510
     15  C5        16.9720    0.9280   12.6600 C.ar  525  INH525      0.3910
     16  H7        18.4160    2.3140   12.0560 H     525  INH525      0.1760
     17  O5        16.0070    0.9950   13.6390 O.2   525  INH525     -0.1740
     18  O4        17.1060   -0.0570   11.9590 O.2   525  INH525     -0.2360
@<TRIPOS>BOND
     1    18    15    2
     2    16    14    1
     3    15    14   ar
     4    15    17   ar
     5    14    12   ar
     6    12    13    2
     7    12    11   ar
     8    17    11   ar
     9    11    10    1
    10     3     2    1
    11    10     1    1
    12     4     2    1
    13     2     1    1
    14     2     5    1
    15     1     6    1
    16     8     6    1
    17     8     9    1
    18     6     7    2
