@<TRIPOS>MOLECULE
/tmp/ewbell/vina_1p1o_1p1o_lig/vina/vina5.pdbqt
 18 18 0 0 0
SMALL
GASTEIGER

@<TRIPOS>ATOM
      1  C1        15.9770    2.4290   12.7180 C.3   525  INH525      0.3000
      2  N1        15.8020    0.9380   12.6710 N.4   525  INH525     -0.0640
      3  H6        16.3120    0.5160   13.4310 H     525  INH525      0.2750
      4  H4        16.1530    0.5870   11.7940 H     525  INH525      0.2750
      5  H5        14.8230    0.7120   12.7560 H     525  INH525      0.2750
      6  C2        17.0140    2.7650   11.6400 C.2   525  INH525      0.1730
      7  O1        16.8670    3.7960   10.9610 O.2   525  INH525     -0.6480
      8  O2        17.9720    1.9690   11.4990 O.3   525  INH525     -0.7750
      9  H         17.8500    1.1680   11.0280 H     525  INH525      0.1670
     10  C3        16.5580    3.0330   14.0050 C.3   525  INH525      0.2050
     11  N2        16.9270    1.9810   14.9560 N.ar  525  INH525     -0.1940
     12  C4        16.1590    1.4670   15.9590 C.ar  525  INH525      0.3510
     13  O3        15.2700    2.0590   16.4910 O.2   525  INH525     -0.2440
     14  N3        16.6320    0.2170   16.1760 N.ar  525  INH525     -0.2510
     15  C5        17.6620   -0.0890   15.3410 C.ar  525  INH525      0.3910
     16  H7        16.2680   -0.4080   16.8670 H     525  INH525      0.1760
     17  O5        17.8880    1.0040   14.5360 O.2   525  INH525     -0.1740
     18  O4        18.3230   -1.1060   15.2430 O.2   525  INH525     -0.2360
@<TRIPOS>BOND
     1     7     6    2
     2     9     8    1
     3     8     6    1
     4     6     1    1
     5     4     2    1
     6     2     1    1
     7     2     5    1
     8     2     3    1
     9     1    10    1
    10    10    11    1
    11    17    11   ar
    12    17    15   ar
    13    11    12   ar
    14    18    15    2
    15    15    14   ar
    16    12    14   ar
    17    12    13    2
    18    14    16    1
