@<TRIPOS>MOLECULE
/tmp/ewbell/vina_1p1o_1p1o_lig/vina/vina4.pdbqt
 18 18 0 0 0
SMALL
GASTEIGER

@<TRIPOS>ATOM
      1  C1        12.3850  -10.4690   17.5890 C.3   525  INH525      0.3000
      2  N1        12.2870  -11.5080   16.5080 N.4   525  INH525     -0.0640
      3  H6        13.1460  -11.5270   15.9810 H     525  INH525      0.2750
      4  H4        11.5200  -11.2810   15.8940 H     525  INH525      0.2750
      5  H5        12.1270  -12.4130   16.9250 H     525  INH525      0.2750
      6  C2        12.0910  -11.2010   18.9040 C.2   525  INH525      0.1730
      7  O1        11.6030  -12.3430   18.8610 O.2   525  INH525     -0.6480
      8  O2        12.3640  -10.5990   19.9670 O.3   525  INH525     -0.7750
      9  H         11.9140   -9.8060   20.1860 H     525  INH525      0.1670
     10  C3        11.3690   -9.3190   17.5590 C.3   525  INH525      0.2050
     11  N2        12.0410   -8.0230   17.6770 N.ar  525  INH525     -0.1940
     12  C4        11.5700   -6.8080   17.2760 C.ar  525  INH525      0.3510
     13  O3        10.7690   -6.6550   16.4060 O.2   525  INH525     -0.2440
     14  N3        12.1990   -5.8970   18.0580 N.ar  525  INH525     -0.2510
     15  C5        13.0420   -6.4870   18.9480 C.ar  525  INH525      0.3910
     16  H7        12.0610   -4.9090   17.9880 H     525  INH525      0.1760
     17  O5        12.9750   -7.8470   18.7510 O.2   525  INH525     -0.1740
     18  O4        13.7600   -5.9970   19.7980 O.2   525  INH525     -0.2360
@<TRIPOS>BOND
     1     4     2    1
     2     3     2    1
     3    13    12    2
     4     2     5    1
     5     2     1    1
     6    12    11   ar
     7    12    14   ar
     8    10     1    1
     9    10    11    1
    10     1     6    1
    11    11    17   ar
    12    16    14    1
    13    14    15   ar
    14    17    15   ar
    15     7     6    2
    16     6     8    1
    17    15    18    2
    18     8     9    1
