@<TRIPOS>MOLECULE
/tmp/ewbell/vina_1p1o_1p1o_lig/vina/vina3.pdbqt
 18 18 0 0 0
SMALL
GASTEIGER

@<TRIPOS>ATOM
      1  C1        16.0490    2.0860   13.0540 C.3   525  INH525      0.3000
      2  N1        16.2730    0.6590   12.6400 N.4   525  INH525     -0.0640
      3  H6        15.5900    0.0680   13.0890 H     525  INH525      0.2750
      4  H4        17.1990    0.3710   12.9150 H     525  INH525      0.2750
      5  H5        16.1800    0.5800   11.6390 H     525  INH525      0.2750
      6  C2        16.9320    2.9340   12.1310 C.2   525  INH525      0.1730
      7  O1        16.4030    3.5520   11.1920 O.2   525  INH525     -0.6480
      8  O2        18.1600    2.9600   12.3790 O.3   525  INH525     -0.7750
      9  H         18.5960    2.1830   12.6700 H     525  INH525      0.1670
     10  C3        16.4840    2.4870   14.4710 C.3   525  INH525      0.2050
     11  N2        15.6990    1.7740   15.4810 N.ar  525  INH525     -0.1940
     12  C4        16.0270    0.6110   16.1130 C.ar  525  INH525      0.3510
     13  O3        16.7570   -0.2160   15.6570 O.2   525  INH525     -0.2440
     14  N3        15.3610    0.6360   17.2930 N.ar  525  INH525     -0.2510
     15  C5        14.6330    1.7760   17.4400 C.ar  525  INH525      0.3910
     16  H7        15.4000   -0.0950   17.9740 H     525  INH525      0.1760
     17  O5        14.8170    2.5410   16.3120 O.2   525  INH525     -0.1740
     18  O4        13.9220    2.1450   18.3560 O.2   525  INH525     -0.2360
@<TRIPOS>BOND
     1     7     6    2
     2     5     2    1
     3     6     8    1
     4     6     1    1
     5     8     9    1
     6     2     4    1
     7     2     1    1
     8     2     3    1
     9     1    10    1
    10    10    11    1
    11    11    12   ar
    12    11    17   ar
    13    13    12    2
    14    12    14   ar
    15    17    15   ar
    16    14    15   ar
    17    14    16    1
    18    15    18    2
