@<TRIPOS>MOLECULE
./ligand/1s9t_lig.pdb
 20 20 0 0 0
SMALL
GASTEIGER

@<TRIPOS>ATOM
      1  N1        32.0570   15.5950   38.4350 N.4   1013  INH1013     0.2303
      2  C1        33.0680   14.4890   38.3090 C.3   1013  INH1013     0.0998
      3  C2        32.8100   13.5360   39.4970 C.2   1013  INH1013     0.4045
      4  O1        31.8790   13.7860   40.2880 O.co2 1013  INH1013    -0.2399
      5  C3        34.5520   14.8980   38.3650 C.3   1013  INH1013     0.1148
      6  O2        33.5670   12.5240   39.6130 O.co2 1013  INH1013    -0.2399
      7  H1        32.8930   13.9670   37.3570 H     1013  INH1013     0.0989
      8  H2        35.1260   14.0930   38.8470 H     1013  INH1013     0.0587
      9  H3        34.6460   15.8210   38.9560 H     1013  INH1013     0.0587
     10  H4        31.1280   15.2080   38.3840 H     1013  INH1013     0.2003
     11  H5        32.1870   16.2560   37.6850 H     1013  INH1013     0.2003
     12  H6        32.1790   16.0620   39.3200 H     1013  INH1013     0.2003
     13  C4        35.0340   14.2410   35.9650 C.ar  1013  INH1013     0.3607
     14  C5        34.4400   16.2330   35.1590 C.ar  1013  INH1013     0.4409
     15  N2        35.0990   15.1350   37.0180 N.ar  1013  INH1013    -0.1448
     16  N3        34.6380   14.9360   34.8770 N.ar  1013  INH1013    -0.2398
     17  O3        35.2950   13.0690   36.0770 O.2   1013  INH1013    -0.2436
     18  O4        34.0890   17.1520   34.4460 O.2   1013  INH1013    -0.2209
     19  O5        34.7110   16.4180   36.4920 O.2   1013  INH1013    -0.3160
     20  H7        34.5080   14.5330   33.9710 H     1013  INH1013     0.1767
@<TRIPOS>BOND
     1    20    16    1
     2    18    14    2
     3    16    14   ar
     4    16    13   ar
     5    14    19   ar
     6    13    17    2
     7    13    15   ar
     8    19    15   ar
     9    15     5    1
    10     7     2    1
    11    11     1    1
    12     2     5    1
    13     2     1    1
    14     2     3    1
    15     5     8    1
    16     5     9    1
    17    10     1    1
    18     1    12    1
    19     3     6   ar
    20     3     4   ar
