@<TRIPOS>MOLECULE
/tmp/ewbell/vina_1s9t_1s9t_lig/vina/vina2.pdbqt
 18 18 0 0 0
SMALL
GASTEIGER

@<TRIPOS>ATOM
      1  C1        19.0000   24.1710   36.0550 C.3   1013  INH1013     0.2950
      2  N1        19.1000   24.9290   34.7600 N.4   1013  INH1013    -0.0640
      3  H5        19.7070   24.4330   34.1260 H     1013  INH1013     0.2750
      4  H4        18.1850   25.0150   34.3490 H     1013  INH1013     0.2750
      5  H6        19.4770   25.8470   34.9370 H     1013  INH1013     0.2750
      6  C3        18.1050   22.9180   36.0550 C.3   1013  INH1013     0.1760
      7  N2        18.7470   21.7930   35.3530 N.ar  1013  INH1013    -0.0970
      8  C4        18.4460   20.4580   35.5480 C.ar  1013  INH1013     0.3290
      9  N3        18.3260   19.8940   34.3270 N.ar  1013  INH1013    -0.2560
     10  O3        18.3260   19.9610   36.6400 O.2   1013  INH1013    -0.2510
     11  C5        18.5290   20.7860   33.3450 C.ar  1013  INH1013     0.3860
     12  H7        18.1100   18.9300   34.1730 H     1013  INH1013     0.1750
     13  O4        18.5070   20.6510   32.1370 O.2   1013  INH1013    -0.2360
     14  O5        18.7950   21.9990   33.9290 O.2   1013  INH1013    -0.1970
     15  C2        20.4350   23.7100   36.3930 C.2   1013  INH1013     0.1720
     16  O2        21.3210   23.8400   35.4950 O.2   1013  INH1013    -0.6480
     17  O1        20.6700   23.2260   37.5190 O.3   1013  INH1013    -0.7750
     18  H         21.0550   23.7590   38.1870 H     1013  INH1013     0.1670
@<TRIPOS>BOND
     1    13    11    2
     2    11    14   ar
     3    11     9   ar
     4    14     7   ar
     5     3     2    1
     6    12     9    1
     7     9     8   ar
     8     4     2    1
     9     2     5    1
    10     2     1    1
    11     7     8   ar
    12     7     6    1
    13    16    15    2
    14     8    10    2
    15     1     6    1
    16     1    15    1
    17    15    17    1
    18    17    18    1
