@<TRIPOS>MOLECULE
/tmp/ewbell/vina_1s9t_1s9t_lig/vina/vina1.pdbqt
 18 18 0 0 0
SMALL
GASTEIGER

@<TRIPOS>ATOM
      1  C1        28.9800   26.8270   24.4640 C.3   1013  INH1013     0.2950
      2  N1        29.6700   27.6960   25.4780 N.4   1013  INH1013    -0.0640
      3  H5        29.4110   27.4010   26.4070 H     1013  INH1013     0.2750
      4  H4        30.6680   27.6150   25.3670 H     1013  INH1013     0.2750
      5  H6        29.3940   28.6570   25.3410 H     1013  INH1013     0.2750
      6  C3        29.5780   26.8120   23.0440 C.3   1013  INH1013     0.1760
      7  N2        31.0480   26.8850   23.0750 N.ar  1013  INH1013    -0.0970
      8  C4        31.9010   26.0660   22.3570 C.ar  1013  INH1013     0.3290
      9  N3        32.8340   26.8610   21.7920 N.ar  1013  INH1013    -0.2560
     10  O3        31.7680   24.8690   22.2940 O.2   1013  INH1013    -0.2510
     11  C5        32.6400   28.1530   22.0980 C.ar  1013  INH1013     0.3860
     12  H7        33.5800   26.5280   21.2150 H     1013  INH1013     0.1750
     13  O4        33.2680   29.1440   21.7800 O.2   1013  INH1013    -0.2360
     14  O5        31.5290   28.2310   22.9000 O.2   1013  INH1013    -0.1970
     15  C2        29.0600   25.3850   25.0110 C.2   1013  INH1013     0.1720
     16  O2        27.9920   24.8650   25.4550 O.2   1013  INH1013    -0.6480
     17  O1        30.1560   24.7900   25.0030 O.3   1013  INH1013    -0.7750
     18  H         30.9140   25.1980   25.3760 H     1013  INH1013     0.1670
@<TRIPOS>BOND
     1    12     9    1
     2    13    11    2
     3     9    11   ar
     4     9     8   ar
     5    11    14   ar
     6    10     8    2
     7     8     7   ar
     8    14     7   ar
     9     6     7    1
    10     6     1    1
    11     1    15    1
    12     1     2    1
    13    17    15    1
    14    17    18    1
    15    15    16    2
    16     5     2    1
    17     4     2    1
    18     2     3    1
