@<TRIPOS>MOLECULE
/tmp/ewbell/vina_1s9t_1s9t_lig/vina/vina4.pdbqt
 18 18 0 0 0
SMALL
GASTEIGER

@<TRIPOS>ATOM
      1  C1        21.7030   21.9220   31.8780 C.3   1013  INH1013     0.2950
      2  N1        21.0010   20.6260   31.5820 N.4   1013  INH1013    -0.0640
      3  H5        20.2450   20.4960   32.2370 H     1013  INH1013     0.2750
      4  H4        20.6330   20.6500   30.6450 H     1013  INH1013     0.2750
      5  H6        21.6550   19.8630   31.6670 H     1013  INH1013     0.2750
      6  C3        22.1110   22.1710   33.3420 C.3   1013  INH1013     0.1760
      7  N2        20.9550   22.5580   34.1680 N.ar  1013  INH1013    -0.0970
      8  C4        20.1460   21.6800   34.8660 C.ar  1013  INH1013     0.3290
      9  N3        19.9790   22.1910   36.1040 N.ar  1013  INH1013    -0.2560
     10  O3        19.7110   20.6620   34.3880 O.2   1013  INH1013    -0.2510
     11  C5        20.6340   23.3530   36.2560 C.ar  1013  INH1013     0.3860
     12  H7        19.4340   21.7560   36.8220 H     1013  INH1013     0.1750
     13  O4        20.7140   24.0950   37.2150 O.2   1013  INH1013    -0.2360
     14  O5        21.2690   23.6330   35.0720 O.2   1013  INH1013    -0.1970
     15  C2        22.9990   21.9090   31.0370 C.2   1013  INH1013     0.1720
     16  O2        23.4410   23.0230   30.6220 O.2   1013  INH1013    -0.6480
     17  O1        23.5550   20.8200   30.7910 O.3   1013  INH1013    -0.7750
     18  H         23.0390   20.0740   30.5540 H     1013  INH1013     0.1670
@<TRIPOS>BOND
     1    18    17    1
     2    16    15    2
     3     4     2    1
     4    17    15    1
     5    15     1    1
     6     2     5    1
     7     2     1    1
     8     2     3    1
     9     1     6    1
    10     6     7    1
    11     7     8   ar
    12     7    14   ar
    13    10     8    2
    14     8     9   ar
    15    14    11   ar
    16     9    11   ar
    17     9    12    1
    18    11    13    2
