@<TRIPOS>MOLECULE
/tmp/ewbell/vina_1s9t_1s9t_lig/vina/vina3.pdbqt
 18 18 0 0 0
SMALL
GASTEIGER

@<TRIPOS>ATOM
      1  C1        18.5170   20.8180   34.2690 C.3   1013  INH1013     0.2950
      2  N1        17.7700   19.8000   33.4540 N.4   1013  INH1013    -0.0640
      3  H5        18.4240   19.2620   32.9060 H     1013  INH1013     0.2750
      4  H4        17.2610   19.1840   34.0690 H     1013  INH1013     0.2750
      5  H6        17.1230   20.2700   32.8390 H     1013  INH1013     0.2750
      6  C3        17.9220   22.2390   34.3170 C.3   1013  INH1013     0.1760
      7  N2        18.9770   23.2650   34.3660 N.ar  1013  INH1013    -0.0970
      8  C4        19.4860   23.8280   35.5230 C.ar  1013  INH1013     0.3290
      9  N3        20.8310   23.8290   35.4070 N.ar  1013  INH1013    -0.2560
     10  O3        18.7910   24.2210   36.4270 O.2   1013  INH1013    -0.2510
     11  C5        21.2300   23.2970   34.2410 C.ar  1013  INH1013     0.3860
     12  H7        21.4540   24.1810   36.1050 H     1013  INH1013     0.1750
     13  O4        22.3460   23.1330   33.7890 O.2   1013  INH1013    -0.2360
     14  O5        20.1090   22.9220   33.5450 O.2   1013  INH1013    -0.1970
     15  C2        18.5330   20.2790   35.7170 C.2   1013  INH1013     0.1720
     16  O2        18.5420   19.0210   35.8750 O.2   1013  INH1013    -0.6480
     17  O1        18.5310   21.0860   36.6680 O.3   1013  INH1013    -0.7750
     18  H         18.9570   21.9170   36.5780 H     1013  INH1013     0.1670
@<TRIPOS>BOND
     1     5     2    1
     2     3     2    1
     3     2     4    1
     4     2     1    1
     5    14    11   ar
     6    14     7   ar
     7    13    11    2
     8    11     9   ar
     9     1     6    1
    10     1    15    1
    11     6     7    1
    12     7     8   ar
    13     9     8   ar
    14     9    12    1
    15     8    10    2
    16    15    16    2
    17    15    17    1
    18    18    17    1
