@<TRIPOS>MOLECULE
/tmp/ewbell/vina_1s9t_1s9t_lig/vina/vina5.pdbqt
 18 18 0 0 0
SMALL
GASTEIGER

@<TRIPOS>ATOM
      1  C1        18.5120   24.0710   35.6470 C.3   1013  INH1013     0.2950
      2  N1        19.3500   25.3170   35.5650 N.4   1013  INH1013    -0.0640
      3  H5        19.0880   25.9490   36.3050 H     1013  INH1013     0.2750
      4  H4        20.3230   25.0740   35.6600 H     1013  INH1013     0.2750
      5  H6        19.2010   25.7640   34.6730 H     1013  INH1013     0.2750
      6  C3        18.5470   23.1310   34.4280 C.3   1013  INH1013     0.1760
      7  N2        19.8500   22.4550   34.3040 N.ar  1013  INH1013    -0.0970
      8  C4        20.0250   21.1090   34.0370 C.ar  1013  INH1013     0.3290
      9  N3        20.9700   21.0130   33.0770 N.ar  1013  INH1013    -0.2560
     10  O3        19.4080   20.2390   34.5990 O.2   1013  INH1013    -0.2510
     11  C5        21.4200   22.2200   32.7000 C.ar  1013  INH1013     0.3860
     12  H7        21.2930   20.1490   32.6920 H     1013  INH1013     0.1750
     13  O4        22.2590   22.5280   31.8760 O.2   1013  INH1013    -0.2360
     14  O5        20.7510   23.1660   33.4350 O.2   1013  INH1013    -0.1970
     15  C2        19.0470   23.2740   36.8570 C.2   1013  INH1013     0.1720
     16  O2        19.9790   23.7980   37.5390 O.2   1013  INH1013    -0.6480
     17  O1        18.5570   22.1570   37.1160 O.3   1013  INH1013    -0.7750
     18  H         18.0310   21.7160   36.4770 H     1013  INH1013     0.1670
@<TRIPOS>BOND
     1    13    11    2
     2    12     9    1
     3    11     9   ar
     4    11    14   ar
     5     9     8   ar
     6    14     7   ar
     7     8     7   ar
     8     8    10    2
     9     7     6    1
    10     6     1    1
    11     5     2    1
    12     2     1    1
    13     2     4    1
    14     2     3    1
    15     1    15    1
    16    18    17    1
    17    15    17    1
    18    15    16    2
