@<TRIPOS>MOLECULE
./ligand/3czv_lig.pdb
 18 18 0 0 0
SMALL
GASTEIGER

@<TRIPOS>ATOM
      1  C1        33.8190   59.3640   18.1560 C.ar  262  INH262      0.2572
      2  C2        35.4080   60.0500   19.7330 C.ar  262  INH262      0.1893
      3  C3        36.0940   61.9150   21.1990 C.2   262  INH262      0.2156
      4  C4        37.3070   62.4470   21.8940 C.3   262  INH262      0.0125
      5  N1        33.0630   59.1140   15.5560 N.3   262  INH262     -0.1032
      6  N2        35.6360   58.8370   19.2900 N.ar  262  INH262     -0.1239
      7  N3        34.6980   58.4400   18.3630 N.ar  262  INH262     -0.1190
      8  N4        36.2400   60.6350   20.6680 N.am  262  INH262     -0.2635
      9  O1        31.9450   57.8730   17.3260 O.2   262  INH262     -0.1498
     10  O2        31.6640   60.3250   17.1420 O.2   262  INH262     -0.1498
     11  O3        35.0410   62.5320   21.0950 O.2   262  INH262     -0.2757
     12  S1        32.4740   59.1560   17.0090 S.O2  262  INH262      0.0978
     13  S2        34.0170   60.8120   19.0530 S.2   262  INH262     -0.0105
     14  H1        37.0970   63.4560   22.2770 H     262  INH262      0.0323
     15  H2        38.1460   62.4920   21.1840 H     262  INH262      0.0323
     16  H3        37.5700   61.7840   22.7320 H     262  INH262      0.0323
     17  H4        32.8510   58.3180   14.9370 H     262  INH262      0.1695
     18  H5        37.0150   60.0920   20.9920 H     262  INH262      0.1568
@<TRIPOS>BOND
     1     1     7   ar
     2     1    13   ar
     3     1    12    1
     4     2     8    1
     5     2    13   ar
     6     2     6   ar
     7     3    11    2
     8     3     8   am
     9     3     4    1
    10     4    16    1
    11     4    15    1
    12     4    14    1
    13     5    12    1
    14     5    17    1
    15     6     7   ar
    16     8    18    1
    17     9    12    2
    18    10    12    2
