@<TRIPOS>MOLECULE
/tmp/ewbell/vina_3czv_3czv_lig/vina/vina3.pdbqt
 18 18 0 0 0
SMALL
GASTEIGER

@<TRIPOS>ATOM
      1  C1        36.2160   60.9630   19.7410 C.3   262  INH262      0.2030
      2  C2        34.8800   59.5170   18.4740 C.3   262  INH262      0.1680
      3  N2        35.1900   59.0130   19.6440 N.3   262  INH262     -0.2780
      4  H2        34.8850   58.0950   19.9680 H     262  INH262      0.1890
      5  N3        35.9750   59.8690   20.3840 N.3   262  INH262     -0.2810
      6  H3        36.3230   59.6640   21.3210 H     262  INH262      0.1880
      7  S2        35.5300   61.0870   18.1740 S.3   262  INH262     -0.0200
      8  S1        37.2030   62.2730   20.4310 S.O2  262  INH262      0.2630
      9  O1        36.2480   63.1640   20.9980 O.2   262  INH262     -0.2040
     10  O2        38.1750   61.6330   21.2600 O.2   262  INH262     -0.2040
     11  N1        37.9440   63.0060   19.2600 N.3   262  INH262     -0.2230
     12  H4        38.7200   63.6520   19.4650 H     262  INH262      0.1360
     13  H         37.2380   63.5440   18.7560 H     262  INH262      0.1360
     14  N4        34.0930   58.8140   17.5810 N.am  262  INH262     -0.3060
     15  C3        32.7130   58.9400   17.4410 C.2   262  INH262      0.2190
     16  O3        32.0910   58.2660   16.6290 O.2   262  INH262     -0.2740
     17  C4        32.0780   59.9420   18.3510 C.3   262  INH262      0.1170
     18  H5        34.5560   58.1580   16.9840 H     262  INH262      0.1710
@<TRIPOS>BOND
     1    16    15    2
     2    18    14    1
     3    15    14   am
     4    15    17    1
     5    14     2    1
     6     7     2    1
     7     7     1    1
     8     2     3    1
     9    13    11    1
    10    11    12    1
    11    11     8    1
    12     3     4    1
    13     3     5    1
    14     1     5    1
    15     1     8    1
    16     5     6    1
    17     8     9    2
    18     8    10    2
