@<TRIPOS>MOLECULE
/tmp/ewbell/vina_3czv_3czv_lig/vina/vina4.pdbqt
 18 18 0 0 0
SMALL
GASTEIGER

@<TRIPOS>ATOM
      1  C1        33.4470   59.9420   17.9990 C.3   262  INH262      0.2030
      2  C2        35.1390   60.9480   19.2670 C.3   262  INH262      0.1680
      3  N2        35.5970   60.4060   18.1640 N.3   262  INH262     -0.2780
      4  H2        36.5780   60.4200   17.8870 H     262  INH262      0.1890
      5  N3        34.5970   59.8170   17.4230 N.3   262  INH262     -0.2810
      6  H3        34.7450   59.3410   16.5340 H     262  INH262      0.1880
      7  S2        33.4370   60.7780   19.4960 S.3   262  INH262     -0.0200
      8  S1        31.9520   59.2860   17.2900 S.O2  262  INH262      0.2630
      9  O1        31.1280   60.4310   17.1000 O.2   262  INH262     -0.2040
     10  O2        32.3650   58.4980   16.1720 O.2   262  INH262     -0.2040
     11  N1        31.2730   58.3450   18.3450 N.3   262  INH262     -0.2230
     12  H4        31.5880   57.3690   18.4440 H     262  INH262      0.1360
     13  H         30.2800   58.3120   18.1140 H     262  INH262      0.1360
     14  N4        35.9850   61.5950   20.1470 N.am  262  INH262     -0.3060
     15  C3        36.5140   61.0510   21.3150 C.2   262  INH262      0.2190
     16  O3        37.2490   61.7030   22.0460 O.2   262  INH262     -0.2740
     17  C4        36.1080   59.6370   21.5880 C.3   262  INH262      0.1170
     18  H5        36.2380   62.5370   19.9260 H     262  INH262      0.1710
@<TRIPOS>BOND
     1    10     8    2
     2     6     5    1
     3     9     8    2
     4     8     1    1
     5     8    11    1
     6     5     1    1
     7     5     3    1
     8     4     3    1
     9     1     7    1
    10    13    11    1
    11     3     2    1
    12    11    12    1
    13     2     7    1
    14     2    14    1
    15    18    14    1
    16    14    15   am
    17    15    17    1
    18    15    16    2
