@<TRIPOS>MOLECULE
/tmp/ewbell/vina_3czv_3czv_lig/vina/vina5.pdbqt
 18 18 0 0 0
SMALL
GASTEIGER

@<TRIPOS>ATOM
      1  C1        39.4890   61.6950   16.3410 C.3   262  INH262      0.2030
      2  C2        40.9640   60.5530   17.7560 C.3   262  INH262      0.1680
      3  N2        40.9440   61.8420   17.9920 N.3   262  INH262     -0.2780
      4  H2        41.5060   62.2990   18.7100 H     262  INH262      0.1890
      5  N3        40.0750   62.5080   17.1570 N.3   262  INH262     -0.2810
      6  H3        39.9130   63.5150   17.1800 H     262  INH262      0.1880
      7  S2        39.9180   60.0410   16.4820 S.3   262  INH262     -0.0200
      8  S1        38.3040   62.2500   15.1350 S.O2  262  INH262      0.2630
      9  O1        38.9610   63.3270   14.4750 O.2   262  INH262     -0.2040
     10  O2        37.9150   61.0850   14.4060 O.2   262  INH262     -0.2040
     11  N1        37.0510   62.8120   15.8920 N.3   262  INH262     -0.2230
     12  H4        36.4190   63.4760   15.4210 H     262  INH262      0.1360
     13  H         37.3980   63.2810   16.7290 H     262  INH262      0.1360
     14  N4        41.7710   59.7060   18.4920 N.am  262  INH262     -0.3060
     15  C3        41.3840   58.9970   19.6270 C.2   262  INH262      0.2190
     16  O3        42.1710   58.2760   20.2270 O.2   262  INH262     -0.2740
     17  C4        39.9600   59.1980   20.0370 C.3   262  INH262      0.1170
     18  H5        42.7150   59.5930   18.1820 H     262  INH262      0.1710
@<TRIPOS>BOND
     1    10     8    2
     2     9     8    2
     3     8    11    1
     4     8     1    1
     5    12    11    1
     6    11    13    1
     7     1     7    1
     8     1     5    1
     9     7     2    1
    10     5     6    1
    11     5     3    1
    12     2     3    1
    13     2    14    1
    14     3     4    1
    15    18    14    1
    16    14    15   am
    17    15    17    1
    18    15    16    2
