@<TRIPOS>MOLECULE
/tmp/ewbell/vina_3czv_3czv_lig/vina/vina1.pdbqt
 18 18 0 0 0
SMALL
GASTEIGER

@<TRIPOS>ATOM
      1  C1        37.9640   61.8640   17.0050 C.3   262  INH262      0.2030
      2  C2        36.2820   61.8660   18.6340 C.3   262  INH262      0.1680
      3  N2        37.3320   62.5620   18.9990 N.3   262  INH262     -0.2780
      4  H2        37.4100   63.0500   19.8910 H     262  INH262      0.1890
      5  N3        38.3170   62.5570   18.0370 N.3   262  INH262     -0.2810
      6  H3        39.2110   63.0380   18.1270 H     262  INH262      0.1880
      7  S2        36.4120   61.1390   17.0740 S.3   262  INH262     -0.0200
      8  S1        39.0210   61.6660   15.5870 S.O2  262  INH262      0.2630
      9  O1        38.5420   60.4810   14.9610 O.2   262  INH262     -0.2040
     10  O2        38.9830   62.9150   14.8950 O.2   262  INH262     -0.2040
     11  N1        40.4850   61.4140   16.0900 N.3   262  INH262     -0.2230
     12  H4        41.1750   62.1790   16.0740 H     262  INH262      0.1360
     13  H         40.8680   60.6600   15.5180 H     262  INH262      0.1360
     14  N4        35.1810   61.7520   19.4600 N.am  262  INH262     -0.3060
     15  C3        34.9470   60.7180   20.3640 C.2   262  INH262      0.2190
     16  O3        33.9330   60.6890   21.0500 O.2   262  INH262     -0.2740
     17  C4        36.0150   59.6730   20.4120 C.3   262  INH262      0.1170
     18  H5        34.4910   62.4740   19.4030 H     262  INH262      0.1710
@<TRIPOS>BOND
     1    10     8    2
     2     9     8    2
     3    13    11    1
     4     8    11    1
     5     8     1    1
     6    12    11    1
     7     1     7    1
     8     1     5    1
     9     7     2    1
    10     5     6    1
    11     5     3    1
    12     2     3    1
    13     2    14    1
    14     3     4    1
    15    18    14    1
    16    14    15   am
    17    15    17    1
    18    15    16    2
