@<TRIPOS>MOLECULE
/tmp/ewbell/vina_3czv_3czv_lig/vina/vina2.pdbqt
 18 18 0 0 0
SMALL
GASTEIGER

@<TRIPOS>ATOM
      1  C1        38.5160   61.6020   17.3880 C.3   262  INH262      0.2030
      2  C2        37.8520   61.2750   19.6090 C.3   262  INH262      0.1680
      3  N2        37.2260   62.2790   19.0440 N.3   262  INH262     -0.2780
      4  H2        36.5290   62.8540   19.5160 H     262  INH262      0.1890
      5  N3        37.6210   62.4660   17.7380 N.3   262  INH262     -0.2810
      6  H3        37.2540   63.1930   17.1250 H     262  INH262      0.1880
      7  S2        38.9870   60.4710   18.5870 S.3   262  INH262     -0.0200
      8  S1        39.2280   61.5800   15.7570 S.O2  262  INH262      0.2630
      9  O1        40.6270   61.4550   15.9920 O.2   262  INH262     -0.2040
     10  O2        38.5230   60.5680   15.0370 O.2   262  INH262     -0.2040
     11  N1        38.9540   62.9660   15.0760 N.3   262  INH262     -0.2230
     12  H4        39.6770   63.4040   14.4880 H     262  INH262      0.1360
     13  H         38.7450   63.6260   15.8260 H     262  INH262      0.1360
     14  N4        37.5930   60.9210   20.9190 N.am  262  INH262     -0.3060
     15  C3        36.6660   59.9680   21.3360 C.2   262  INH262      0.2190
     16  O3        36.4910   59.7260   22.5240 O.2   262  INH262     -0.2740
     17  C4        35.9190   59.2940   20.2300 C.3   262  INH262      0.1170
     18  H5        38.1180   61.3890   21.6300 H     262  INH262      0.1710
@<TRIPOS>BOND
     1    12    11    1
     2    10     8    2
     3    11     8    1
     4    11    13    1
     5     8     9    2
     6     8     1    1
     7     6     5    1
     8     1     5    1
     9     1     7    1
    10     5     3    1
    11     7     2    1
    12     3     4    1
    13     3     2    1
    14     2    14    1
    15    17    15    1
    16    14    15   am
    17    14    18    1
    18    15    16    2
