@<TRIPOS>MOLECULE
/tmp/ewbell/vina_2fqt_2fqt_lig/vina/vina3.pdbqt
 25 24 0 0 0
SMALL
GASTEIGER

@<TRIPOS>ATOM
      1  C5       -23.7820   31.0470  -16.8170 C.3   315  INH315      0.1080
      2  S1       -23.7710   32.3270  -15.5080 S.3   315  INH315     -0.1660
      3  C4       -22.0260   32.2300  -14.9650 C.3   315  INH315      0.0760
      4  C3       -21.0310   32.1730  -16.1280 C.3   315  INH315      0.0540
      5  C1       -20.4350   33.5440  -16.4570 C.3   315  INH315      0.2810
      6  N1       -19.6530   33.4720  -17.6990 N.4   315  INH315     -0.0650
      7  H3       -18.7070   33.1910  -17.4870 H     315  INH315      0.2750
      8  H4       -19.6410   34.3770  -18.1430 H     315  INH315      0.2750
      9  H2       -20.0720   32.7980  -18.3210 H     315  INH315      0.2750
     10  C2       -19.5400   34.0340  -15.3140 C.2   315  INH315      0.1710
     11  O2       -19.7530   35.1840  -14.8770 O.2   315  INH315     -0.6480
     12  O1       -18.6610   33.2430  -14.9060 O.3   315  INH315     -0.7750
     13  H        -18.5840   33.0580  -13.9910 H     315  INH315      0.1670
     14  C6       -25.1950   30.7590  -17.3240 C.3   315  INH315      0.1650
     15  C7       -25.3110   29.3660  -17.9480 C.3   315  INH315      0.2410
     16  C8       -25.5210   29.5240  -19.4550 C.2   315  INH315      0.2720
     17  N2       -24.4140   29.4720  -20.1880 N.am  315  INH315     -0.2350
     18  H15      -23.5290   29.3260  -19.7440 H     315  INH315      0.1970
     19  O5       -26.6470   29.6990  -19.9180 O.2   315  INH315     -0.2680
     20  O6       -24.4800   29.6160  -21.5390 O.3   315  INH315     -0.2870
     21  H16      -24.0840   28.8610  -21.9570 H     315  INH315      0.2440
     22  O4       -26.4350   28.6770  -17.3940 O.3   315  INH315     -0.3830
     23  H14      -26.3940   28.7160  -16.4450 H     315  INH315      0.2100
     24  O3       -25.5290   31.7380  -18.3120 O.3   315  INH315     -0.3920
     25  H12      -25.4390   31.3580  -19.1780 H     315  INH315      0.2100
@<TRIPOS>BOND
     1    21    20    1
     2    20    17    1
     3    17    18    1
     4    17    16   am
     5    19    16    2
     6    16    15    1
     7    25    24    1
     8     9     6    1
     9    24    14    1
    10     8     6    1
    11    15    22    1
    12    15    14    1
    13     6     7    1
    14     6     5    1
    15    22    23    1
    16    14     1    1
    17     1     2    1
    18     5     4    1
    19     5    10    1
    20     4     3    1
    21     2     3    1
    22    10    12    1
    23    10    11    2
    24    12    13    1
