@<TRIPOS>MOLECULE
/tmp/ewbell/vina_2fqt_2fqt_lig/vina/vina2.pdbqt
 25 24 0 0 0
SMALL
GASTEIGER

@<TRIPOS>ATOM
      1  C5       -23.7840   31.0540  -16.7880 C.3   315  INH315      0.1080
      2  S1       -23.7520   32.4910  -15.6540 S.3   315  INH315     -0.1660
      3  C4       -21.9660   32.5590  -15.2570 C.3   315  INH315      0.0760
      4  C3       -21.0670   32.5080  -16.4950 C.3   315  INH315      0.0540
      5  C1       -19.9420   33.5450  -16.4460 C.3   315  INH315      0.2810
      6  N1       -20.2100   34.5360  -15.3950 N.4   315  INH315     -0.0650
      7  H3       -20.4300   34.0610  -14.5320 H     315  INH315      0.2750
      8  H4       -20.9900   35.1140  -15.6680 H     315  INH315      0.2750
      9  H2       -19.3950   35.1140  -15.2610 H     315  INH315      0.2750
     10  C2       -19.8000   34.2550  -17.7970 C.2   315  INH315      0.1710
     11  O2       -19.1550   33.6610  -18.6860 O.2   315  INH315     -0.6480
     12  O1       -20.3410   35.3760  -17.9050 O.3   315  INH315     -0.7750
     13  H        -19.9520   36.1260  -17.5010 H     315  INH315      0.1670
     14  C6       -25.1940   30.7630  -17.3020 C.3   315  INH315      0.1650
     15  C7       -25.3030   29.3700  -17.9280 C.3   315  INH315      0.2410
     16  C8       -25.5230   29.5290  -19.4340 C.2   315  INH315      0.2720
     17  N2       -24.4210   29.4700  -20.1740 N.am  315  INH315     -0.2350
     18  H15      -23.5350   29.3180  -19.7370 H     315  INH315      0.1970
     19  O5       -26.6510   29.7120  -19.8880 O.2   315  INH315     -0.2680
     20  O6       -24.4960   29.6150  -21.5250 O.3   315  INH315     -0.2870
     21  H16      -23.6240   29.5560  -21.8980 H     315  INH315      0.2440
     22  O4       -26.4190   28.6720  -17.3690 O.3   315  INH315     -0.3830
     23  H14      -26.4170   27.7730  -17.6760 H     315  INH315      0.2100
     24  O3       -25.5260   31.7420  -18.2900 O.3   315  INH315     -0.3920
     25  H12      -26.1080   32.3910  -17.9110 H     315  INH315      0.2100
@<TRIPOS>BOND
     1    21    20    1
     2    20    17    1
     3    17    18    1
     4    17    16   am
     5    19    16    2
     6    16    15    1
     7    11    10    2
     8    24    25    1
     9    24    14    1
    10    15    22    1
    11    15    14    1
    12    12    10    1
    13    12    13    1
    14    10     5    1
    15    23    22    1
    16    14     1    1
    17     1     2    1
    18     4     5    1
    19     4     3    1
    20     5     6    1
    21     8     6    1
    22     2     3    1
    23     6     9    1
    24     6     7    1
