@<TRIPOS>MOLECULE
/tmp/ewbell/vina_2fqt_2fqt_lig/vina/vina1.pdbqt
 25 24 0 0 0
SMALL
GASTEIGER

@<TRIPOS>ATOM
      1  C5       -16.4730   18.7020   -7.8200 C.3   315  INH315      0.1080
      2  S1       -15.3070   18.3120   -9.1760 S.3   315  INH315     -0.1660
      3  C4       -13.7240   18.8130   -8.4070 C.3   315  INH315      0.0760
      4  C3       -13.4350   20.3110   -8.5360 C.3   315  INH315      0.0540
      5  C1       -11.9620   20.6480   -8.2880 C.3   315  INH315      0.2810
      6  N1       -11.1230   20.0570   -9.3400 N.4   315  INH315     -0.0650
      7  H3       -11.3770   20.4490  -10.2340 H     315  INH315      0.2750
      8  H4       -11.2620   19.0580   -9.3610 H     315  INH315      0.2750
      9  H2       -10.1530   20.2560   -9.1490 H     315  INH315      0.2750
     10  C2       -11.5100   20.1300   -6.9190 C.2   315  INH315      0.1710
     11  O2       -11.9530   20.7220   -5.9130 O.2   315  INH315     -0.6480
     12  O1       -10.7310   19.1520   -6.9140 O.3   315  INH315     -0.7750
     13  H        -10.3040   18.8960   -6.1210 H     315  INH315      0.1670
     14  C6       -17.3670   17.5110   -7.4730 C.3   315  INH315      0.1650
     15  C7       -18.6870   17.9490   -6.8320 C.3   315  INH315      0.2410
     16  C8       -18.6290   17.6310   -5.3360 C.2   315  INH315      0.2720
     17  N2       -18.1410   18.6020   -4.5710 N.am  315  INH315     -0.2350
     18  H15      -17.8560   19.4660   -4.9850 H     315  INH315      0.1970
     19  O5       -19.0030   16.5390   -4.9110 O.2   315  INH315     -0.2680
     20  O6       -18.0300   18.4240   -3.2270 O.3   315  INH315     -0.2870
     21  H16      -17.4890   17.6630   -3.0530 H     315  INH315      0.2440
     22  O4       -19.7740   17.2270   -7.4170 O.3   315  INH315     -0.3830
     23  H14      -20.2750   16.7990   -6.7330 H     315  INH315      0.2100
     24  O3       -16.6630   16.6690   -6.5560 O.3   315  INH315     -0.3920
     25  H12      -16.9610   15.7720   -6.6560 H     315  INH315      0.2100
@<TRIPOS>BOND
     1     7     6    1
     2     8     6    1
     3     6     9    1
     4     6     5    1
     5     2     3    1
     6     2     1    1
     7     4     3    1
     8     4     5    1
     9     5    10    1
    10     1    14    1
    11    14    15    1
    12    14    24    1
    13    22    15    1
    14    22    23    1
    15    10    12    1
    16    10    11    2
    17    12    13    1
    18    15    16    1
    19    25    24    1
    20    16    19    2
    21    16    17   am
    22    18    17    1
    23    17    20    1
    24    20    21    1
