@<TRIPOS>MOLECULE
/tmp/ewbell/vina_2fqt_2fqt_lig/vina/vina5.pdbqt
 25 24 0 0 0
SMALL
GASTEIGER

@<TRIPOS>ATOM
      1  C5       -22.4040   31.9120  -14.9980 C.3   315  INH315      0.1080
      2  S1       -23.6730   33.1050  -15.5620 S.3   315  INH315     -0.1660
      3  C4       -25.0630   31.9670  -15.9160 C.3   315  INH315      0.0760
      4  C3       -25.1120   31.5070  -17.3760 C.3   315  INH315      0.0540
      5  C1       -24.5960   30.0760  -17.5570 C.3   315  INH315      0.2810
      6  N1       -23.5660   30.0380  -18.6040 N.4   315  INH315     -0.0650
      7  H3       -22.8790   30.7550  -18.4280 H     315  INH315      0.2750
      8  H4       -23.9930   30.1960  -19.5030 H     315  INH315      0.2750
      9  H2       -23.1170   29.1350  -18.6010 H     315  INH315      0.2750
     10  C2       -25.7430   29.1310  -17.9290 C.2   315  INH315      0.1710
     11  O2       -25.8650   28.0900  -17.2500 O.2   315  INH315     -0.6480
     12  O1       -26.4700   29.4740  -18.8860 O.3   315  INH315     -0.7750
     13  H        -26.9880   28.8360  -19.3350 H     315  INH315      0.1670
     14  C6       -21.2530   31.7870  -15.9950 C.3   315  INH315      0.1650
     15  C7       -20.0400   32.6250  -15.5840 C.3   315  INH315      0.2410
     16  C8       -20.2420   34.0540  -16.0930 C.2   315  INH315      0.2720
     17  N2       -19.8790   34.2600  -17.3550 N.am  315  INH315     -0.2350
     18  H15      -19.5170   33.5030  -17.8990 H     315  INH315      0.1970
     19  O5       -20.6960   34.9260  -15.3540 O.2   315  INH315     -0.2680
     20  O6       -20.0000   35.4970  -17.9080 O.3   315  INH315     -0.2870
     21  H16      -20.8600   35.5840  -18.3030 H     315  INH315      0.2440
     22  O4       -18.8540   32.0870  -16.1750 O.3   315  INH315     -0.3830
     23  H14      -19.0660   31.7040  -17.0180 H     315  INH315      0.2100
     24  O3       -21.7120   32.2330  -17.2740 O.3   315  INH315     -0.3920
     25  H12      -22.2520   31.5570  -17.6710 H     315  INH315      0.2100
@<TRIPOS>BOND
     1     8     6    1
     2    13    12    1
     3    12    10    1
     4     6     9    1
     5     6     7    1
     6     6     5    1
     7    21    20    1
     8    10     5    1
     9    10    11    2
    10    20    17    1
    11    18    17    1
    12    25    24    1
    13     5     4    1
    14     4     3    1
    15    17    16   am
    16    24    14    1
    17    23    22    1
    18    22    15    1
    19    16    15    1
    20    16    19    2
    21    14    15    1
    22    14     1    1
    23     3     2    1
    24     2     1    1
