@<TRIPOS>MOLECULE
/tmp/ewbell/vina_2fqt_2fqt_lig/vina/vina4.pdbqt
 25 24 0 0 0
SMALL
GASTEIGER

@<TRIPOS>ATOM
      1  C5       -21.6160   32.6190  -16.5110 C.3   315  INH315      0.1080
      2  S1       -22.8900   31.6930  -15.5770 S.3   315  INH315     -0.1660
      3  C4       -23.4390   30.5040  -16.8560 C.3   315  INH315      0.0760
      4  C3       -24.8280   30.8170  -17.4190 C.3   315  INH315      0.0540
      5  C1       -25.2190   29.8860  -18.5690 C.3   315  INH315      0.2810
      6  N1       -24.0150   29.3580  -19.2270 N.4   315  INH315     -0.0650
      7  H3       -23.2540   29.3300  -18.5640 H     315  INH315      0.2750
      8  H4       -23.7640   29.9560  -19.9990 H     315  INH315      0.2750
      9  H2       -24.1980   28.4280  -19.5670 H     315  INH315      0.2750
     10  C2       -26.0830   30.6260  -19.5960 C.2   315  INH315      0.1710
     11  O2       -26.3710   31.8140  -19.3450 O.2   315  INH315     -0.6480
     12  O1       -26.4330   29.9810  -20.6080 O.3   315  INH315     -0.7750
     13  H        -26.8330   30.4230  -21.3310 H     315  INH315      0.1670
     14  C6       -20.3840   32.9160  -15.6570 C.3   315  INH315      0.1650
     15  C7       -19.7660   34.2770  -15.9900 C.3   315  INH315      0.2410
     16  C8       -19.8140   34.4750  -17.5070 C.2   315  INH315      0.2720
     17  N2       -19.0830   33.6160  -18.2110 N.am  315  INH315     -0.2350
     18  H15      -18.5650   32.9010  -17.7420 H     315  INH315      0.1970
     19  O5       -20.4810   35.3820  -18.0010 O.2   315  INH315     -0.2680
     20  O6       -19.0390   33.7070  -19.5680 O.3   315  INH315     -0.2870
     21  H16      -18.3080   33.1980  -19.8950 H     315  INH315      0.2440
     22  O4       -18.4020   34.3090  -15.5630 O.3   315  INH315     -0.3830
     23  H14      -17.8710   33.7920  -16.1580 H     315  INH315      0.2100
     24  O3       -19.4110   31.8940  -15.8970 O.3   315  INH315     -0.3920
     25  H12      -18.7010   32.2490  -16.4190 H     315  INH315      0.2100
@<TRIPOS>BOND
     1    13    12    1
     2    12    10    1
     3     8     6    1
     4    21    20    1
     5    10    11    2
     6    10     5    1
     7    20    17    1
     8     9     6    1
     9     6     5    1
    10     6     7    1
    11     5     4    1
    12    17    18    1
    13    17    16   am
    14    19    16    2
    15    16    15    1
    16     4     3    1
    17     3     2    1
    18     1    14    1
    19     1     2    1
    20    25    24    1
    21    23    22    1
    22    15    14    1
    23    15    22    1
    24    24    14    1
