@<TRIPOS>MOLECULE
./ligand/3e92_lig.pdb
 47 50 0 0 0
SMALL
GASTEIGER

@<TRIPOS>ATOM
      1  C1        48.9010   34.8130   30.4810 C.3   354  INH354      0.0138
      2  C2        37.1320   26.5140   36.2330 C.3   354  INH354     -0.0328
      3  C3        38.2640   27.1710   36.9540 C.3   354  INH354     -0.0328
      4  C4        38.5190   26.3570   35.7020 C.3   354  INH354      0.0235
      5  C5        47.5280   34.8470   31.1690 C.ar  354  INH354      0.2147
      6  O1        46.6350   33.8930   30.9750 O.2   354  INH354     -0.4205
      7  N1        46.9900   35.7430   32.0320 N.ar  354  INH354     -0.1124
      8  N2        45.8270   35.3620   32.3690 N.ar  354  INH354     -0.1073
      9  C6        45.5470   34.1890   31.7290 C.ar  354  INH354      0.2483
     10  C7        44.3010   33.4070   31.8360 C.ar  354  INH354      0.0388
     11  C8        43.2130   33.8020   32.6200 C.ar  354  INH354     -0.0489
     12  C9        42.0870   32.9840   32.6390 C.ar  354  INH354     -0.0530
     13  C10       44.2100   32.2030   31.1160 C.ar  354  INH354     -0.0460
     14  C11       43.0760   31.3710   31.1840 C.ar  354  INH354     -0.0420
     15  C12       43.0360   30.0670   30.4250 C.3   354  INH354     -0.0391
     16  C13       41.9900   31.7880   31.9470 C.ar  354  INH354     -0.0147
     17  C14       40.7500   30.9510   32.0470 C.ar  354  INH354     -0.0140
     18  C15       40.6450   30.0430   33.1170 C.ar  354  INH354     -0.0417
     19  C16       39.5210   29.2010   33.2980 C.ar  354  INH354      0.0373
     20  C17       39.5490   28.2860   34.4810 C.2   354  INH354      0.2443
     21  O2        40.4020   28.4830   35.3640 O.2   354  INH354     -0.2702
     22  N3        38.5850   27.2970   34.6010 N.am  354  INH354     -0.3085
     23  C18       38.4600   29.3230   32.3610 C.ar  354  INH354     -0.0494
     24  C19       38.5450   30.2290   31.3010 C.ar  354  INH354     -0.0575
     25  C20       39.6930   31.0460   31.1330 C.ar  354  INH354     -0.0427
     26  C21       39.7830   32.0540   29.9890 C.3   354  INH354     -0.0391
     27  H1        49.4830   35.6970   30.7800 H     354  INH354      0.0324
     28  H2        48.7640   34.8160   29.3890 H     354  INH354      0.0324
     29  H3        49.4390   33.9020   30.7810 H     354  INH354      0.0324
     30  H4        36.6190   25.6540   36.6880 H     354  INH354      0.0284
     31  H5        36.4020   27.1280   35.6850 H     354  INH354      0.0284
     32  H6        38.3710   28.2650   36.9310 H     354  INH354      0.0284
     33  H7        38.5880   26.7910   37.9340 H     354  INH354      0.0284
     34  H8        39.1070   25.4300   35.6300 H     354  INH354      0.0498
     35  H9        43.2450   34.7190   33.1970 H     354  INH354      0.0625
     36  H10       41.2360   33.3020   33.2300 H     354  INH354      0.0624
     37  H11       45.0410   31.9050   30.4870 H     354  INH354      0.0628
     38  H12       42.0730   29.5670   30.6060 H     354  INH354      0.0278
     39  H13       43.8560   29.4180   30.7670 H     354  INH354      0.0278
     40  H14       43.1500   30.2650   29.3490 H     354  INH354      0.0278
     41  H15       41.4580   29.9860   33.8320 H     354  INH354      0.0631
     42  H16       37.8920   27.2280   33.8830 H     354  INH354      0.1493
     43  H17       37.5750   28.7060   32.4700 H     354  INH354      0.0625
     44  H18       37.7240   30.3090   30.5980 H     354  INH354      0.0621
     45  H19       38.8730   31.9930   29.3740 H     354  INH354      0.0278
     46  H20       40.6610   31.8260   29.3680 H     354  INH354      0.0278
     47  H21       39.8790   33.0690   30.4020 H     354  INH354      0.0278
@<TRIPOS>BOND
     1     1    29    1
     2     1    28    1
     3     1    27    1
     4     1     5    1
     5     2     4    1
     6     2    31    1
     7     2    30    1
     8     2     3    1
     9     3     4    1
    10     3    33    1
    11     3    32    1
    12     4    22    1
    13     4    34    1
    14     5     7   ar
    15     5     6   ar
    16     6     9   ar
    17     7     8   ar
    18     8     9   ar
    19     9    10    1
    20    10    13   ar
    21    10    11   ar
    22    11    35    1
    23    11    12   ar
    24    12    36    1
    25    12    16   ar
    26    13    14   ar
    27    13    37    1
    28    14    16   ar
    29    14    15    1
    30    15    40    1
    31    15    39    1
    32    15    38    1
    33    16    17    1
    34    17    25   ar
    35    17    18   ar
    36    18    41    1
    37    18    19   ar
    38    19    23   ar
    39    19    20    1
    40    20    22   am
    41    20    21    2
    42    22    42    1
    43    23    43    1
    44    23    24   ar
    45    24    44    1
    46    24    25   ar
    47    25    26    1
    48    26    47    1
    49    26    46    1
    50    26    45    1
