@<TRIPOS>MOLECULE
/tmp/ewbell/vina_3e92_3e92_lig/vina/vina1.pdbqt
 29 32 0 0 0
SMALL
GASTEIGER

@<TRIPOS>ATOM
      1  C7        47.8920   34.3120   29.6580 C.ar  354  INH354      0.0170
      2  C8        46.6960   34.2290   28.9380 C.ar  354  INH354      0.0170
      3  C9        45.5640   33.7620   29.6000 C.ar  354  INH354      0.0140
      4  C10       47.8920   33.9300   31.0110 C.ar  354  INH354      0.0230
      5  C11       46.7240   33.5000   31.6700 C.ar  354  INH354     -0.0500
      6  C12       46.7600   33.1370   33.1340 C.3   354  INH354      0.0490
      7  C13       45.5460   33.3980   30.9360 C.ar  354  INH354     -0.0190
      8  C14       44.2740   32.9330   31.5800 C.ar  354  INH354     -0.0180
      9  C20       43.5950   33.6820   32.5490 C.ar  354  INH354     -0.0510
     10  C19       42.4020   33.1700   33.1230 C.ar  354  INH354      0.0090
     11  C21       44.1710   35.0250   32.9940 C.3   354  INH354      0.0490
     12  C18       41.8910   31.9320   32.7250 C.ar  354  INH354      0.0170
     13  C16       42.5560   31.1550   31.7390 C.ar  354  INH354      0.0320
     14  C15       43.7540   31.6820   31.1990 C.ar  354  INH354      0.0300
     15  C17       42.1260   29.8130   31.2390 C.2   354  INH354      0.2520
     16  N3        40.7750   29.5100   31.1750 N.am  354  INH354     -0.3520
     17  H16       40.5130   28.5830   30.9010 H     354  INH354      0.1630
     18  O2        43.0000   28.9750   30.9550 O.2   354  INH354     -0.2680
     19  C4        39.7160   30.4530   31.4800 C.3   354  INH354      0.0840
     20  C2        38.9450   29.7930   32.5750 C.3   354  INH354      0.0270
     21  C3        38.4080   29.7500   31.1810 C.3   354  INH354      0.0270
     22  C6        49.1590   34.7850   29.0690 C.3   354  INH354      0.1740
     23  O1        50.2790   34.0530   28.8430 O.3   354  INH354     -0.2780
     24  C5        51.1810   34.8570   28.3090 C.3   354  INH354      0.1360
     25  C1        52.5870   34.3570   27.9470 C.3   354  INH354      0.0990
     26  N1        50.6170   36.0840   28.1890 N.3   354  INH354     -0.2810
     27  N2        49.4300   36.0520   28.6370 N.3   354  INH354     -0.2770
     28  H1        51.0770   36.9070   27.7980 H     354  INH354      0.1890
     29  H2        48.7840   36.8400   28.6680 H     354  INH354      0.1890
@<TRIPOS>BOND
     1    28    26    1
     2    25    24    1
     3    26    24    1
     4    26    27    1
     5    24    23    1
     6    27    29    1
     7    27    22    1
     8    23    22    1
     9     2     3   ar
    10     2     1   ar
    11    22     1    1
    12     3     7   ar
    13     1     4   ar
    14    17    16    1
    15     7     8    1
    16     7     5   ar
    17    18    15    2
    18     4     5   ar
    19    16    15   am
    20    16    19    1
    21    21    19    1
    22    21    20    1
    23    14     8   ar
    24    14    13   ar
    25    15    13    1
    26    19    20    1
    27     8     9   ar
    28     5     6    1
    29    13    12   ar
    30     9    11    1
    31     9    10   ar
    32    12    10   ar
