@<TRIPOS>MOLECULE
/tmp/ewbell/vina_3e92_3e92_lig/vina/vina2.pdbqt
 29 32 0 0 0
SMALL
GASTEIGER

@<TRIPOS>ATOM
      1  C7        48.2860   34.3760   29.8860 C.ar  354  INH354      0.0170
      2  C8        48.0740   34.2110   31.2580 C.ar  354  INH354      0.0170
      3  C9        46.8070   33.8240   31.6840 C.ar  354  INH354      0.0140
      4  C10       47.2160   34.1350   29.0060 C.ar  354  INH354      0.0230
      5  C11       45.9540   33.7040   29.4580 C.ar  354  INH354     -0.0500
      6  C12       44.8450   33.4190   28.4750 C.3   354  INH354      0.0490
      7  C13       45.7490   33.5690   30.8270 C.ar  354  INH354     -0.0190
      8  C14       44.4230   33.1260   31.3690 C.ar  354  INH354     -0.0180
      9  C20       43.8520   33.6750   32.5240 C.ar  354  INH354     -0.0510
     10  C19       42.5980   33.1940   32.9830 C.ar  354  INH354      0.0090
     11  C21       44.6080   34.7600   33.2880 C.3   354  INH354      0.0490
     12  C18       41.9200   32.1880   32.2910 C.ar  354  INH354      0.0170
     13  C16       42.4730   31.6190   31.1120 C.ar  354  INH354      0.0320
     14  C15       43.7350   32.1040   30.6890 C.ar  354  INH354      0.0300
     15  C17       41.8610   30.5290   30.2900 C.2   354  INH354      0.2520
     16  N3        42.2220   29.2120   30.5270 N.am  354  INH354     -0.3520
     17  H16       41.8510   28.5070   29.9200 H     354  INH354      0.1630
     18  O2        41.0900   30.8430   29.3670 O.2   354  INH354     -0.2680
     19  C4        43.1040   28.7920   31.5980 C.3   354  INH354      0.0840
     20  C2        43.4170   27.3680   31.2750 C.3   354  INH354      0.0270
     21  C3        42.3990   27.6670   32.3260 C.3   354  INH354      0.0270
     22  C6        49.5810   34.7870   29.3110 C.3   354  INH354      0.1740
     23  O1        50.7470   34.0950   29.3470 O.3   354  INH354     -0.2780
     24  C5        51.6600   34.8170   28.7220 C.3   354  INH354      0.1360
     25  C1        53.1140   34.3380   28.5980 C.3   354  INH354      0.0990
     26  N1        51.0580   35.9500   28.2840 N.3   354  INH354     -0.2810
     27  N2        49.8360   35.9420   28.6290 N.3   354  INH354     -0.2770
     28  H1        51.5160   36.6940   27.7580 H     354  INH354      0.1890
     29  H2        49.1570   36.6760   28.4290 H     354  INH354      0.1890
@<TRIPOS>BOND
     1    28    26    1
     2    26    27    1
     3    26    24    1
     4    29    27    1
     5     6     5    1
     6    25    24    1
     7    27    22    1
     8    24    23    1
     9     4     5   ar
    10     4     1   ar
    11    22    23    1
    12    22     1    1
    13    18    15    2
    14     5     7   ar
    15     1     2   ar
    16    17    16    1
    17    15    16   am
    18    15    13    1
    19    16    19    1
    20    14    13   ar
    21    14     8   ar
    22     7     8    1
    23     7     3   ar
    24    13    12   ar
    25     2     3   ar
    26    20    19    1
    27    20    21    1
    28     8     9   ar
    29    19    21    1
    30    12    10   ar
    31     9    10   ar
    32     9    11    1
