@<TRIPOS>MOLECULE
/tmp/ewbell/vina_3e92_3e92_lig/vina/vina3.pdbqt
 29 32 0 0 0
SMALL
GASTEIGER

@<TRIPOS>ATOM
      1  C7        40.7810   20.4590   33.0570 C.ar  354  INH354      0.0170
      2  C8        39.7140   19.5570   32.9960 C.ar  354  INH354      0.0170
      3  C9        38.7060   19.7960   32.0660 C.ar  354  INH354      0.0140
      4  C10       40.7890   21.5530   32.1740 C.ar  354  INH354      0.0230
      5  C11       39.7790   21.7510   31.2130 C.ar  354  INH354     -0.0500
      6  C12       39.8480   22.9170   30.2590 C.3   354  INH354      0.0490
      7  C13       38.7100   20.8610   31.1800 C.ar  354  INH354     -0.0190
      8  C14       37.5980   21.0270   30.1880 C.ar  354  INH354     -0.0180
      9  C20       36.3000   21.4050   30.5570 C.ar  354  INH354     -0.0510
     10  C19       35.2970   21.5290   29.5620 C.ar  354  INH354      0.0090
     11  C21       35.9830   21.6430   32.0320 C.3   354  INH354      0.0490
     12  C18       35.5890   21.2900   28.2170 C.ar  354  INH354      0.0170
     13  C16       36.8980   20.9140   27.8140 C.ar  354  INH354      0.0320
     14  C15       37.8740   20.7780   28.8310 C.ar  354  INH354      0.0300
     15  C17       37.3370   20.6150   26.4160 C.2   354  INH354      0.2520
     16  N3        38.0430   21.5720   25.7040 N.am  354  INH354     -0.3520
     17  H16       38.2670   21.3760   24.7480 H     354  INH354      0.1630
     18  O2        36.9950   19.5350   25.9040 O.2   354  INH354     -0.2680
     19  C4        38.4780   22.8390   26.2570 C.3   354  INH354      0.0840
     20  C2        39.0580   23.5670   25.0900 C.3   354  INH354      0.0270
     21  C3        39.9780   22.9060   26.0640 C.3   354  INH354      0.0270
     22  C6        41.9050   20.3190   34.0020 C.3   354  INH354      0.1740
     23  O1        41.8380   19.9290   35.2990 O.3   354  INH354     -0.2780
     24  C5        43.0670   19.9400   35.7850 C.3   354  INH354      0.1360
     25  C1        43.3550   19.5740   37.2480 C.3   354  INH354      0.0990
     26  N1        43.8990   20.3220   34.7850 N.3   354  INH354     -0.2810
     27  N2        43.2240   20.5490   33.7340 N.3   354  INH354     -0.2770
     28  H1        44.9120   20.4120   34.8640 H     354  INH354      0.1890
     29  H2        43.6040   20.8540   32.8380 H     354  INH354      0.1890
@<TRIPOS>BOND
     1    17    16    1
     2    20    21    1
     3    20    19    1
     4    16    19    1
     5    16    15   am
     6    18    15    2
     7    21    19    1
     8    15    13    1
     9    13    12   ar
    10    13    14   ar
    11    12    10   ar
    12    14     8   ar
    13    10     9   ar
    14     8     9   ar
    15     8     7    1
    16     6     5    1
    17     9    11    1
    18     7     5   ar
    19     7     3   ar
    20     5     4   ar
    21     3     2   ar
    22     4     1   ar
    23    29    27    1
    24     2     1   ar
    25     1    22    1
    26    27    22    1
    27    27    26    1
    28    22    23    1
    29    26    28    1
    30    26    24    1
    31    23    24    1
    32    24    25    1
