@<TRIPOS>MOLECULE
/tmp/ewbell/vina_3e92_3e92_lig/vina/vina5.pdbqt
 29 32 0 0 0
SMALL
GASTEIGER

@<TRIPOS>ATOM
      1  C7        42.1280   20.6240   33.0610 C.ar  354  INH354      0.0170
      2  C8        41.2250   21.6480   32.7580 C.ar  354  INH354      0.0170
      3  C9        40.7580   21.7430   31.4500 C.ar  354  INH354      0.0140
      4  C10       42.5110   19.7390   32.0390 C.ar  354  INH354      0.0230
      5  C11       41.9930   19.8300   30.7330 C.ar  354  INH354     -0.0500
      6  C12       42.4020   18.8340   29.6760 C.3   354  INH354      0.0490
      7  C13       41.1150   20.8680   30.4370 C.ar  354  INH354     -0.0190
      8  C14       40.5410   21.0240   29.0610 C.ar  354  INH354     -0.0180
      9  C20       41.1690   21.7680   28.0540 C.ar  354  INH354     -0.0510
     10  C19       40.5570   21.8810   26.7790 C.ar  354  INH354      0.0090
     11  C21       42.4890   22.4730   28.3610 C.3   354  INH354      0.0490
     12  C18       39.3400   21.2500   26.5110 C.ar  354  INH354      0.0170
     13  C16       38.6850   20.4830   27.5120 C.ar  354  INH354      0.0320
     14  C15       39.3090   20.4050   28.7800 C.ar  354  INH354      0.0300
     15  C17       37.3760   19.7740   27.3600 C.2   354  INH354      0.2520
     16  N3        36.2260   20.3480   27.8760 N.am  354  INH354     -0.3520
     17  H16       35.3740   19.8250   27.8230 H     354  INH354      0.1630
     18  O2        37.3680   18.6490   26.8300 O.2   354  INH354     -0.2680
     19  C4        36.1780   21.6610   28.4900 C.3   354  INH354      0.0840
     20  C2        36.1020   21.3770   29.9540 C.3   354  INH354      0.0270
     21  C3        34.8550   21.7520   29.2210 C.3   354  INH354      0.0270
     22  C6        42.6980   20.4220   34.4070 C.3   354  INH354      0.1740
     23  O1        42.1290   20.7540   35.5930 O.3   354  INH354     -0.2780
     24  C5        42.9700   20.4080   36.5510 C.3   354  INH354      0.1360
     25  C1        42.6510   20.6660   38.0310 C.3   354  INH354      0.0990
     26  N1        44.0550   19.8470   35.9620 N.3   354  INH354     -0.2810
     27  N2        43.9040   19.8540   34.7010 N.3   354  INH354     -0.2770
     28  H1        44.8670   19.4750   36.4550 H     354  INH354      0.1890
     29  H2        44.5730   19.4950   34.0200 H     354  INH354      0.1890
@<TRIPOS>BOND
     1    12    10   ar
     2    12    13   ar
     3    10     9   ar
     4    18    15    2
     5    15    13    1
     6    15    16   am
     7    13    14   ar
     8    17    16    1
     9    16    19    1
    10     9    11    1
    11     9     8   ar
    12    19    21    1
    13    19    20    1
    14    14     8   ar
    15     8     7    1
    16    21    20    1
    17     6     5    1
    18     7     5   ar
    19     7     3   ar
    20     5     4   ar
    21     3     2   ar
    22     4     1   ar
    23     2     1   ar
    24     1    22    1
    25    29    27    1
    26    22    27    1
    27    22    23    1
    28    27    26    1
    29    23    24    1
    30    26    28    1
    31    26    24    1
    32    24    25    1
