@<TRIPOS>MOLECULE
/tmp/ewbell/vina_3e92_3e92_lig/vina/vina4.pdbqt
 29 32 0 0 0
SMALL
GASTEIGER

@<TRIPOS>ATOM
      1  C7        41.5970   20.5540   33.8260 C.ar  354  INH354      0.0170
      2  C8        41.4330   21.8400   33.3010 C.ar  354  INH354      0.0170
      3  C9        40.7300   21.9760   32.1070 C.ar  354  INH354      0.0140
      4  C10       41.0390   19.4670   33.1310 C.ar  354  INH354      0.0230
      5  C11       40.2960   19.6340   31.9460 C.ar  354  INH354     -0.0500
      6  C12       39.6800   18.4440   31.2540 C.3   354  INH354      0.0490
      7  C13       40.1620   20.9160   31.4210 C.ar  354  INH354     -0.0190
      8  C14       39.3930   21.1540   30.1560 C.ar  354  INH354     -0.0180
      9  C20       40.0100   21.2900   28.9060 C.ar  354  INH354     -0.0510
     10  C19       39.2160   21.5270   27.7540 C.ar  354  INH354      0.0090
     11  C21       41.5330   21.2120   28.8120 C.3   354  INH354      0.0490
     12  C18       37.8250   21.6180   27.8490 C.ar  354  INH354      0.0170
     13  C16       37.1730   21.4770   29.1040 C.ar  354  INH354      0.0320
     14  C15       37.9920   21.2600   30.2390 C.ar  354  INH354      0.0300
     15  C17       35.7000   21.5670   29.3450 C.2   354  INH354      0.2520
     16  N3        34.8260   20.9470   28.4660 N.am  354  INH354     -0.3520
     17  H16       33.8440   21.0780   28.6080 H     354  INH354      0.1630
     18  O2        35.2950   22.2590   30.2950 O.2   354  INH354     -0.2680
     19  C4        35.2460   20.1200   27.3510 C.3   354  INH354      0.0840
     20  C2        34.8130   20.8860   26.1450 C.3   354  INH354      0.0270
     21  C3        33.9890   19.7280   26.6030 C.3   354  INH354      0.0270
     22  C6        42.3250   20.2790   35.0790 C.3   354  INH354      0.1740
     23  O1        41.9450   20.6190   36.3360 O.3   354  INH354     -0.2780
     24  C5        42.8800   20.1910   37.1660 C.3   354  INH354      0.1360
     25  C1        42.7800   20.4330   38.6790 C.3   354  INH354      0.0990
     26  N1        43.8330   19.5720   36.4270 N.3   354  INH354     -0.2810
     27  N2        43.5160   19.6220   35.1980 N.3   354  INH354     -0.2770
     28  H1        44.6740   19.1330   36.8000 H     354  INH354      0.1890
     29  H2        44.0610   19.2350   34.4280 H     354  INH354      0.1890
@<TRIPOS>BOND
     1    20    21    1
     2    20    19    1
     3    21    19    1
     4    19    16    1
     5    10    12   ar
     6    10     9   ar
     7    12    13   ar
     8    16    17    1
     9    16    15   am
    10    11     9    1
    11     9     8   ar
    12    13    15    1
    13    13    14   ar
    14    15    18    2
    15     8    14   ar
    16     8     7    1
    17     6     5    1
    18     7     5   ar
    19     7     3   ar
    20     5     4   ar
    21     3     2   ar
    22     4     1   ar
    23     2     1   ar
    24     1    22    1
    25    29    27    1
    26    22    27    1
    27    22    23    1
    28    27    26    1
    29    23    24    1
    30    26    28    1
    31    26    24    1
    32    24    25    1
