@<TRIPOS>MOLECULE
./ligand/2v2c_lig.pdb
 11 10 0 0 0
SMALL
GASTEIGER

@<TRIPOS>ATOM
      1  C1        12.3250   11.9850   15.8680 C.2   503  INH503      0.3817
      2  P1        12.0650   15.8960   15.4530 P.3   503  INH503      0.5324
      3  O1        11.7780   14.3280   15.6450 O.3   503  INH503     -0.2721
      4  O2        12.5070   16.5490   16.7240 O.3   503  INH503     -0.1145
      5  O3        10.7410   16.4640   15.0340 O.3   503  INH503     -0.1145
      6  O4        12.7150   11.0490   15.1230 O.co2 503  INH503     -0.2438
      7  O5        13.1490   15.9000   14.3700 O.2   503  INH503     -0.2224
      8  O6        11.4370   11.7630   16.6950 O.co2 503  INH503     -0.2438
      9  C2        12.8660   13.4140   15.7810 C.3   503  INH503      0.1601
     10  H1        13.5300   13.5020   14.9080 H     503  INH503      0.0684
     11  H2        13.4300   13.6490   16.6960 H     503  INH503      0.0684
@<TRIPOS>BOND
     1     1     9    1
     2     1     8   ar
     3     1     6   ar
     4     2     7    2
     5     2     5    1
     6     2     4    1
     7     2     3    1
     8     3     9    1
     9     9    11    1
    10     9    10    1
