@<TRIPOS>MOLECULE
/tmp/ewbell/vina_2v2c_2v2c_lig/vina/vina3.pdbqt
 12 11 0 0 0
SMALL
GASTEIGER

@<TRIPOS>ATOM
      1  P1        12.7230   14.5800   15.9070 P.3   503  INH503      0.3910
      2  O5        12.9510   15.4080   17.1760 O.2   503  INH503     -0.6320
      3  O3        11.7960   13.4110   16.0640 O.3   503  INH503     -0.3070
      4  H         11.0580   13.6600   16.6430 H     503  INH503      0.2220
      5  O2        13.9970   14.1230   15.2710 O.3   503  INH503     -0.3070
      6  H         14.3560   14.8330   14.7180 H     503  INH503      0.2220
      7  O1        11.9120   15.6030   14.9710 O.3   503  INH503     -0.2870
      8  C2        12.2920   16.9780   14.9190 C.3   503  INH503      0.2900
      9  C1        13.1750   17.2180   13.6920 C.2   503  INH503      0.1650
     10  O6        14.2060   16.5480   13.5950 O.2   503  INH503     -0.6480
     11  O4        12.8840   18.0310   12.7770 O.3   503  INH503     -0.7750
     12  H         13.5360   18.2920   12.1570 H     503  INH503      0.1670
@<TRIPOS>BOND
     1    12    11    1
     2    11     9    1
     3    10     9    2
     4     9     8    1
     5     6     5    1
     6     8     7    1
     7     7     1    1
     8     5     1    1
     9     1     3    1
    10     1     2    2
    11     3     4    1
