@<TRIPOS>MOLECULE
/tmp/ewbell/vina_2v2c_2v2c_lig/vina/vina4.pdbqt
 12 11 0 0 0
SMALL
GASTEIGER

@<TRIPOS>ATOM
      1  P1        11.9450   16.6170   15.2030 P.3   503  INH503      0.3910
      2  O5        12.4750   17.1120   13.8540 O.2   503  INH503     -0.6320
      3  O3        10.4990   16.2160   15.2130 O.3   503  INH503     -0.3070
      4  H         10.3970   15.3650   14.7590 H     503  INH503      0.2220
      5  O2        12.2020   17.5780   16.3200 O.3   503  INH503     -0.3070
      6  H         12.7270   18.3240   15.9910 H     503  INH503      0.2220
      7  O1        12.7390   15.2350   15.3970 O.3   503  INH503     -0.2870
      8  C2        12.2540   14.2560   16.3160 C.3   503  INH503      0.2900
      9  C1        12.6180   12.8570   15.8120 C.2   503  INH503      0.1650
     10  O6        12.1100   11.8950   16.3910 O.2   503  INH503     -0.6480
     11  O4        13.3760   12.6500   14.8290 O.3   503  INH503     -0.7750
     12  H         14.1500   13.1650   14.7160 H     503  INH503      0.1670
@<TRIPOS>BOND
     1     2     1    2
     2    12    11    1
     3     4     3    1
     4    11     9    1
     5     1     3    1
     6     1     7    1
     7     1     5    1
     8     7     8    1
     9     9     8    1
    10     9    10    2
    11     6     5    1
