@<TRIPOS>MOLECULE
/tmp/ewbell/vina_2v2c_2v2c_lig/vina/vina5.pdbqt
 12 11 0 0 0
SMALL
GASTEIGER

@<TRIPOS>ATOM
      1  P1        13.2450   13.6240   15.6380 P.3   503  INH503      0.3910
      2  O5        14.0040   14.8050   15.0240 O.2   503  INH503     -0.6320
      3  O3        13.6430   13.2680   17.0400 O.3   503  INH503     -0.3070
      4  H         13.0960   13.7660   17.6670 H     503  INH503      0.2220
      5  O2        13.2830   12.3980   14.7830 O.3   503  INH503     -0.3070
      6  H         13.2490   11.6090   15.3470 H     503  INH503      0.2220
      7  O1        11.7580   14.2130   15.7880 O.3   503  INH503     -0.2870
      8  C2        11.5640   15.5670   16.1940 C.3   503  INH503      0.2900
      9  C1        10.3770   16.1640   15.4340 C.2   503  INH503      0.1650
     10  O6         9.4160   15.4240   15.2110 O.2   503  INH503     -0.6480
     11  O4        10.3250   17.3650   15.0610 O.3   503  INH503     -0.7750
     12  H         10.9290   17.6820   14.4190 H     503  INH503      0.1670
@<TRIPOS>BOND
     1    12    11    1
     2     5     6    1
     3     5     1    1
     4     2     1    2
     5    11     9    1
     6    10     9    2
     7     9     8    1
     8     1     7    1
     9     1     3    1
    10     7     8    1
    11     3     4    1
