@<TRIPOS>MOLECULE
/tmp/ewbell/vina_2v2c_2v2c_lig/vina/vina2.pdbqt
 12 11 0 0 0
SMALL
GASTEIGER

@<TRIPOS>ATOM
      1  P1        12.8010   13.0730   16.0760 P.3   503  INH503      0.3910
      2  O5        11.9250   11.8240   16.2240 O.2   503  INH503     -0.6320
      3  O3        13.6260   13.1300   14.8240 O.3   503  INH503     -0.3070
      4  H         13.6920   12.2410   14.4400 H     503  INH503      0.2220
      5  O2        13.6800   13.3130   17.2620 O.3   503  INH503     -0.3070
      6  H         13.3730   14.1000   17.7380 H     503  INH503      0.2220
      7  O1        11.7110   14.2360   15.8830 O.3   503  INH503     -0.2870
      8  C2        12.0160   15.5730   16.2810 C.3   503  INH503      0.2900
      9  C1        12.4100   16.3940   15.0510 C.2   503  INH503      0.1650
     10  O6        13.5230   16.1870   14.5630 O.2   503  INH503     -0.6480
     11  O4        11.6480   17.2340   14.5050 O.3   503  INH503     -0.7750
     12  H         10.9790   17.6560   15.0070 H     503  INH503      0.1670
@<TRIPOS>BOND
     1     4     3    1
     2    11    12    1
     3    11     9    1
     4    10     9    2
     5     3     1    1
     6     9     8    1
     7     7     1    1
     8     7     8    1
     9     1     2    2
    10     1     5    1
    11     5     6    1
