@<TRIPOS>MOLECULE
/tmp/ewbell/vina_2v2c_2v2c_lig/vina/vina1.pdbqt
 12 11 0 0 0
SMALL
GASTEIGER

@<TRIPOS>ATOM
      1  P1        13.0690   13.8660   15.9850 P.3   503  INH503      0.3910
      2  O5        13.6600   13.4260   17.3280 O.2   503  INH503     -0.6320
      3  O3        11.5870   13.6730   15.8450 O.3   503  INH503     -0.3070
      4  H         11.1630   13.7890   16.7100 H     503  INH503      0.2220
      5  O2        13.7630   13.2510   14.8110 O.3   503  INH503     -0.3070
      6  H         13.1820   13.2880   14.0360 H     503  INH503      0.2220
      7  O1        13.2560   15.4600   16.0330 O.3   503  INH503     -0.2870
      8  C2        12.5280   16.2920   15.1310 C.3   503  INH503      0.2900
      9  C1        13.4120   16.6430   13.9320 C.2   503  INH503      0.1650
     10  O6        12.8990   17.2920   13.0180 O.2   503  INH503     -0.6480
     11  O4        14.6290   16.3320   13.8530 O.3   503  INH503     -0.7750
     12  H         15.0850   16.0280   14.6130 H     503  INH503      0.1670
@<TRIPOS>BOND
     1    10     9    2
     2    11     9    1
     3    11    12    1
     4     9     8    1
     5     6     5    1
     6     5     1    1
     7     8     7    1
     8     3     1    1
     9     3     4    1
    10     1     7    1
    11     1     2    2
