@<TRIPOS>MOLECULE
./ligand/2azr_lig.pdb
 22 23 0 0 0
SMALL
GASTEIGER

@<TRIPOS>ATOM
      1  C1        46.4550   12.2720    2.9360 C.ar  300  INH300     -0.0471
      2  C2        46.4850   11.0190    2.3170 C.ar  300  INH300     -0.0428
      3  C3        45.8240   10.8500    1.1090 C.ar  300  INH300      0.0289
      4  N1        45.1360   11.8170    0.4610 N.ar  300  INH300     -0.2477
      5  C4        45.1370   13.0150    1.0940 C.ar  300  INH300      0.1125
      6  C5        45.7540   13.3290    2.3110 C.ar  300  INH300      0.0502
      7  S1        44.3260   14.3420    0.4060 S.2   300  INH300     -0.0584
      8  C6        44.7650   15.3620    1.7120 C.ar  300  INH300      0.1445
      9  C7        45.5370   14.7090    2.6630 C.ar  300  INH300      0.1517
     10  C8        44.3010   16.8600    1.7050 C.2   300  INH300      0.3967
     11  O1        43.8000   17.2620    0.6140 O.co2 300  INH300     -0.2399
     12  O2        46.0160   15.2980    3.8050 O.3   300  INH300     -0.4786
     13  C9        47.2510   16.0130    3.6410 C.3   300  INH300      0.1901
     14  C10       47.4750   16.9630    4.8310 C.2   300  INH300      0.3927
     15  O3        48.5250   17.6360    4.7770 O.co2 300  INH300     -0.2425
     16  O4        44.4540   17.5450    2.7620 O.co2 300  INH300     -0.2399
     17  O5        46.6160   16.9760    5.7460 O.co2 300  INH300     -0.2425
     18  H1        46.9620   12.4310    3.8810 H     300  INH300      0.0626
     19  H2        47.0170   10.1920    2.7740 H     300  INH300      0.0633
     20  H3        45.8620    9.8690    0.6500 H     300  INH300      0.0830
     21  H4        47.2110   16.5990    2.7110 H     300  INH300      0.0817
     22  H5        48.0830   15.2950    3.5870 H     300  INH300      0.0817
@<TRIPOS>BOND
     1     1    18    1
     2     1     6   ar
     3     1     2   ar
     4     2    19    1
     5     2     3   ar
     6     3    20    1
     7     3     4   ar
     8     4     5   ar
     9     5     7   ar
    10     5     6   ar
    11     6     9   ar
    12     7     8   ar
    13     8     9   ar
    14     8    10    1
    15     9    12    1
    16    10    16   ar
    17    10    11   ar
    18    12    13    1
    19    13    22    1
    20    13    21    1
    21    13    14    1
    22    14    17   ar
    23    14    15   ar
