@<TRIPOS>MOLECULE
/tmp/ewbell/vina_2azr_2azr_lig/vina/vina4.pdbqt
 20 21 0 0 0
SMALL
GASTEIGER

@<TRIPOS>ATOM
      1  C1        45.5840   16.9630    3.2570 C.3   300  INH300      0.0180
      2  C2        46.5220   17.4080    4.1930 C.2   300  INH300      0.0180
      3  C3        47.4440   16.5050    4.7030 C.2   300  INH300      0.0890
      4  N1        47.5160   15.1980    4.3650 N.pl3 300  INH300     -0.3600
      5  H1        48.2050   14.5590    4.7610 H     300  INH300      0.1660
      6  C4        46.5920   14.8110    3.4520 C.ar  300  INH300      0.0880
      7  C5        45.6050   15.6070    2.8570 C.ar  300  INH300      0.0330
      8  S1        46.5540   13.2000    2.9100 S.2   300  INH300     -0.0620
      9  C6        45.2200   13.5160    1.8810 C.ar  300  INH300      0.1140
     10  C7        44.8090   14.8410    1.9320 C.ar  300  INH300      0.1060
     11  O2        43.7630   15.3530    1.2080 O.3   300  INH300     -0.3380
     12  C9        44.1460   16.2110    0.1210 C.3   300  INH300      0.2850
     13  C10       43.6780   15.6110   -1.2170 C.2   300  INH300      0.1640
     14  O5        42.4890   15.8090   -1.5690 O.2   300  INH300     -0.6480
     15  O3        44.5520   14.9800   -1.8460 O.3   300  INH300     -0.7750
     16  H         45.3990   14.8490   -1.4660 H     300  INH300      0.1670
     17  C8        44.6310   12.3540    1.0090 C.2   300  INH300      0.1860
     18  O4        44.5430   12.5250   -0.2450 O.2   300  INH300     -0.6460
     19  O1        44.2870   11.3200    1.6530 O.3   300  INH300     -0.7720
     20  H         44.6960   11.1200    2.4720 H     300  INH300      0.1670
@<TRIPOS>BOND
     1    15    16    1
     2    15    13    1
     3    14    13    2
     4    13    12    1
     5    18    17    2
     6    12    11    1
     7    17    19    1
     8    17     9    1
     9    11    10    1
    10    19    20    1
    11     9    10   ar
    12     9     8   ar
    13    10     7   ar
    14     7     1    1
    15     7     6   ar
    16     8     6   ar
    17     1     2    1
    18     6     4    1
    19     2     3    2
    20     4     3    1
    21     4     5    1
