@<TRIPOS>MOLECULE
/tmp/ewbell/vina_2azr_2azr_lig/vina/vina2.pdbqt
 20 21 0 0 0
SMALL
GASTEIGER

@<TRIPOS>ATOM
      1  C1        46.5170   12.0550    2.7360 C.3   300  INH300      0.0180
      2  C2        46.4460   10.9180    1.9270 C.2   300  INH300      0.0180
      3  C3        45.6890   10.9650    0.7660 C.2   300  INH300      0.0890
      4  N1        44.9960   12.0430    0.3370 N.pl3 300  INH300     -0.3600
      5  H1        44.4460   12.0440   -0.5220 H     300  INH300      0.1660
      6  C4        45.0960   13.1240    1.1480 C.ar  300  INH300      0.0880
      7  C5        45.8170   13.2200    2.3450 C.ar  300  INH300      0.0330
      8  S1        44.2930   14.5680    0.7460 S.2   300  INH300     -0.0620
      9  C6        44.8740   15.3520    2.1560 C.ar  300  INH300      0.1140
     10  C7        45.6870   14.5310    2.9260 C.ar  300  INH300      0.1060
     11  O2        46.2760   14.9150    4.1040 O.3   300  INH300     -0.3380
     12  C9        47.5540   15.5550    3.9570 C.3   300  INH300      0.2850
     13  C10       47.6520   16.7630    4.9060 C.2   300  INH300      0.1640
     14  O5        46.6350   17.0750    5.5720 O.2   300  INH300     -0.6480
     15  O3        48.7680   17.3220    4.9330 O.3   300  INH300     -0.7750
     16  H         49.5370   16.8440    4.6930 H     300  INH300      0.1670
     17  C8        44.4750   16.8450    2.4230 C.2   300  INH300      0.1860
     18  O4        44.1410   17.5670    1.4340 O.2   300  INH300     -0.6460
     19  O1        44.5250   17.2050    3.6350 O.3   300  INH300     -0.7720
     20  H         43.7440   17.4770    4.0770 H     300  INH300      0.1670
@<TRIPOS>BOND
     1     5     4    1
     2     4     3    1
     3     4     6    1
     4     8     6   ar
     5     8     9   ar
     6     3     2    2
     7     6     7   ar
     8    18    17    2
     9     2     1    1
    10     9    17    1
    11     9    10   ar
    12     7     1    1
    13     7    10   ar
    14    17    19    1
    15    10    11    1
    16    19    20    1
    17    12    11    1
    18    12    13    1
    19    16    15    1
    20    13    15    1
    21    13    14    2
