@<TRIPOS>MOLECULE
/tmp/ewbell/vina_2azr_2azr_lig/vina/vina1.pdbqt
 20 21 0 0 0
SMALL
GASTEIGER

@<TRIPOS>ATOM
      1  C1        44.6080   12.8150    0.9930 C.3   300  INH300      0.0180
      2  C2        45.1970   11.5560    0.8440 C.2   300  INH300      0.0180
      3  C3        46.2600   11.2100    1.6670 C.2   300  INH300      0.0890
      4  N1        46.7880   12.0050    2.6240 N.pl3 300  INH300     -0.3600
      5  H1        47.5730   11.7210    3.2110 H     300  INH300      0.1660
      6  C4        46.1840   13.2130    2.7360 C.ar  300  INH300      0.0880
      7  C5        45.1120   13.6960    1.9770 C.ar  300  INH300      0.0330
      8  S1        46.7220   14.3290    3.9020 S.2   300  INH300     -0.0620
      9  C6        45.5510   15.4840    3.4200 C.ar  300  INH300      0.1140
     10  C7        44.7420   15.0260    2.3890 C.ar  300  INH300      0.1060
     11  O2        43.7300   15.7560    1.8200 O.3   300  INH300     -0.3380
     12  C9        44.1650   16.8490    0.9960 C.3   300  INH300      0.2850
     13  C10       44.0060   16.4870   -0.4920 C.2   300  INH300      0.1640
     14  O5        43.3290   15.4710   -0.7830 O.2   300  INH300     -0.6480
     15  O3        44.5690   17.2670   -1.2870 O.3   300  INH300     -0.7750
     16  H         44.4960   17.1270   -2.2110 H     300  INH300      0.1670
     17  C8        45.4870   16.8660    4.1590 C.2   300  INH300      0.1860
     18  O4        46.4720   17.6580    4.0430 O.2   300  INH300     -0.6460
     19  O1        44.4300   17.0720    4.8230 O.3   300  INH300     -0.7720
     20  H         44.0370   17.9230    4.8280 H     300  INH300      0.1670
@<TRIPOS>BOND
     1    16    15    1
     2    15    13    1
     3    14    13    2
     4    13    12    1
     5     2     1    1
     6     2     3    2
     7     1     7    1
     8    12    11    1
     9     3     4    1
    10    11    10    1
    11     7    10   ar
    12     7     6   ar
    13    10     9   ar
    14     4     6    1
    15     4     5    1
    16     6     8   ar
    17     9     8   ar
    18     9    17    1
    19    18    17    2
    20    17    19    1
    21    19    20    1
