@<TRIPOS>MOLECULE
/tmp/ewbell/vina_2azr_2azr_lig/vina/vina3.pdbqt
 20 21 0 0 0
SMALL
GASTEIGER

@<TRIPOS>ATOM
      1  C1        45.1830   11.7830    1.6570 C.3   300  INH300      0.0180
      2  C2        45.3150   10.5980    0.9280 C.2   300  INH300      0.0180
      3  C3        45.1170   10.6280   -0.4450 C.2   300  INH300      0.0890
      4  N1        44.7990   11.7320   -1.1580 N.pl3 300  INH300     -0.3600
      5  H1        44.6570   11.7190   -2.1670 H     300  INH300      0.1660
      6  C4        44.6860   12.8570   -0.4120 C.ar  300  INH300      0.0880
      7  C5        44.8540   12.9760    0.9730 C.ar  300  INH300      0.0330
      8  S1        44.3010   14.3370   -1.1570 S.2   300  INH300     -0.0620
      9  C6        44.3380   15.1680    0.3420 C.ar  300  INH300      0.1140
     10  C7        44.6550   14.3360    1.4060 C.ar  300  INH300      0.1060
     11  O2        44.7470   14.7510    2.7100 O.3   300  INH300     -0.3380
     12  C9        46.0800   15.0530    3.1530 C.3   300  INH300      0.2850
     13  C10       46.2170   16.5610    3.4290 C.2   300  INH300      0.1640
     14  O5        45.1690   17.2230    3.6220 O.2   300  INH300     -0.6480
     15  O3        47.3900   16.9880    3.4480 O.3   300  INH300     -0.7750
     16  H         47.8720   17.0690    2.6490 H     300  INH300      0.1670
     17  C8        44.0490   16.7090    0.3710 C.2   300  INH300      0.1860
     18  O4        44.5400   17.4340   -0.5470 O.2   300  INH300     -0.6460
     19  O1        43.3320   17.1030    1.3370 O.3   300  INH300     -0.7720
     20  H         42.7290   17.8100    1.2170 H     300  INH300      0.1670
@<TRIPOS>BOND
     1     5     4    1
     2     4     3    1
     3     4     6    1
     4     8     6   ar
     5     8     9   ar
     6    18    17    2
     7     3     2    2
     8     6     7   ar
     9     9    17    1
    10     9    10   ar
    11    17    19    1
    12     2     1    1
    13     7    10   ar
    14     7     1    1
    15    20    19    1
    16    10    11    1
    17    16    15    1
    18    11    12    1
    19    12    13    1
    20    13    15    1
    21    13    14    2
