@<TRIPOS>MOLECULE
/tmp/ewbell/vina_2azr_2azr_lig/vina/vina5.pdbqt
 20 21 0 0 0
SMALL
GASTEIGER

@<TRIPOS>ATOM
      1  C1        53.0740    2.6960    6.3570 C.3   300  INH300      0.0180
      2  C2        53.3660    1.3390    6.5190 C.2   300  INH300      0.0180
      3  C3        52.4420    0.3970    6.0910 C.2   300  INH300      0.0890
      4  N1        51.2540    0.6840    5.5130 N.pl3 300  INH300     -0.3600
      5  H1        50.5950   -0.0330    5.2120 H     300  INH300      0.1660
      6  C4        51.0150    2.0100    5.3710 C.ar  300  INH300      0.0880
      7  C5        51.8480    3.0670    5.7580 C.ar  300  INH300      0.0330
      8  S1        49.5680    2.5420    4.6520 S.2   300  INH300     -0.0620
      9  C6        50.0080    4.1880    4.8470 C.ar  300  INH300      0.1140
     10  C7        51.2530    4.3400    5.4410 C.ar  300  INH300      0.1060
     11  O2        51.8360    5.5520    5.7100 O.3   300  INH300     -0.3380
     12  C9        52.6190    6.0960    4.6360 C.3   300  INH300      0.2850
     13  C10       52.2640    7.5780    4.4200 C.2   300  INH300      0.1640
     14  O5        51.2300    7.8470    3.7600 O.2   300  INH300     -0.6480
     15  O3        53.0510    8.3910    4.9470 O.3   300  INH300     -0.7750
     16  H         53.8320    8.6460    4.4970 H     300  INH300      0.1670
     17  C8        49.0310    5.3070    4.3460 C.2   300  INH300      0.1860
     18  O4        48.4410    5.1410    3.2350 O.2   300  INH300     -0.6460
     19  O1        48.9170    6.3050    5.1160 O.3   300  INH300     -0.7720
     20  H         48.5080    6.2070    5.9540 H     300  INH300      0.1670
@<TRIPOS>BOND
     1    18    17    2
     2    14    13    2
     3    17     9    1
     4    17    19    1
     5    13    12    1
     6    13    15    1
     7    16    15    1
     8    12    11    1
     9     8     9   ar
    10     8     6   ar
    11     9    10   ar
    12    19    20    1
    13     5     4    1
    14     6     4    1
    15     6     7   ar
    16    10    11    1
    17    10     7   ar
    18     4     3    1
    19     7     1    1
    20     3     2    2
    21     1     2    1
