@<TRIPOS>MOLECULE
./ligand/3d83_lig.pdb
 65 69 0 0 0
SMALL
GASTEIGER

@<TRIPOS>ATOM
      1  O1        46.2930   34.8180   30.9770 O.2   352  INH352     -0.2702
      2  C1        46.0010   33.6850   30.5740 C.2   352  INH352      0.2441
      3  N1        46.7750   33.0420   29.6770 N.am  352  INH352     -0.3111
      4  C2        47.9870   33.6210   29.0970 C.3   352  INH352      0.0147
      5  C3        49.0690   32.5610   28.8470 C.3   352  INH352     -0.0254
      6  C4        50.4230   33.1260   29.2810 C.3   352  INH352     -0.0485
      7  C5        49.7130   32.0970   30.1540 C.3   352  INH352     -0.0485
      8  C6        44.7130   33.0050   31.0550 C.ar  352  INH352      0.0367
      9  C7        44.3990   31.7120   30.6360 C.ar  352  INH352     -0.0491
     10  C8        43.2190   31.0710   31.0750 C.ar  352  INH352     -0.0533
     11  C9        43.8320   33.6670   31.9150 C.ar  352  INH352     -0.0491
     12  C10       42.6540   33.0280   32.3520 C.ar  352  INH352     -0.0533
     13  C11       42.3460   31.7220   31.9440 C.ar  352  INH352     -0.0175
     14  C12       41.1220   31.1280   32.3350 C.ar  352  INH352     -0.0132
     15  C13       39.9640   31.5260   31.6450 C.ar  352  INH352     -0.0426
     16  C14       40.0470   32.5660   30.5520 C.3   352  INH352     -0.0391
     17  C15       40.9900   30.1500   33.3360 C.ar  352  INH352     -0.0325
     18  C16       39.7240   29.6130   33.6760 C.ar  352  INH352      0.0343
     19  C17       38.5790   30.0370   32.9910 C.ar  352  INH352     -0.0402
     20  C18       38.7050   30.9950   31.9660 C.ar  352  INH352     -0.0565
     21  N2        39.5810   28.6850   34.6690 N.am  352  INH352     -0.2815
     22  C19       40.2020   28.7100   35.8760 C.2   352  INH352      0.2484
     23  O2        41.1200   29.4700   36.1680 O.2   352  INH352     -0.2699
     24  C20       39.7990   27.7130   36.9570 C.ar  352  INH352      0.0417
     25  C21       40.1000   27.9850   38.3110 C.ar  352  INH352     -0.0096
     26  C22       39.7450   27.0410   39.2980 C.ar  352  INH352      0.1221
     27  N3        39.1500   25.8840   38.9140 N.ar  352  INH352     -0.2403
     28  C23       38.8610   25.5970   37.6230 C.ar  352  INH352      0.0304
     29  C24       39.1850   26.5000   36.6040 C.ar  352  INH352     -0.0313
     30  N4        40.0600   27.2770   40.6590 N.pl3 352  INH352     -0.3108
     31  C25       39.9840   26.1460   41.5840 C.3   352  INH352      0.0370
     32  C26       39.8540   26.6370   43.0270 C.3   352  INH352      0.0634
     33  O3        40.7740   27.6980   43.2700 O.3   352  INH352     -0.3767
     34  C27       40.3550   28.8400   42.5260 C.3   352  INH352      0.0634
     35  C28       40.5920   28.6050   41.0320 C.3   352  INH352      0.0370
     36  H1        46.5070   32.1210   29.3930 H     352  INH352      0.1490
     37  H2        48.3850   34.3780   29.7890 H     352  INH352      0.0465
     38  H3        47.7300   34.0980   28.1400 H     352  INH352      0.0465
     39  H4        48.9020   31.9140   27.9740 H     352  INH352      0.0316
     40  H5        50.5010   34.1710   29.6160 H     352  INH352      0.0269
     41  H6        51.3360   32.8470   28.7340 H     352  INH352      0.0269
     42  H7        50.1140   31.0760   30.2370 H     352  INH352      0.0269
     43  H8        49.2790   32.4000   31.1180 H     352  INH352      0.0269
     44  H9        45.0710   31.1910   29.9630 H     352  INH352      0.0625
     45  H10       42.9920   30.0670   30.7340 H     352  INH352      0.0624
     46  H11       44.0550   34.6740   32.2470 H     352  INH352      0.0625
     47  H12       41.9760   33.5540   33.0140 H     352  INH352      0.0624
     48  H13       39.0440   32.7410   30.1360 H     352  INH352      0.0278
     49  H14       40.7170   32.2090   29.7560 H     352  INH352      0.0278
     50  H15       40.4400   33.5050   30.9690 H     352  INH352      0.0278
     51  H16       41.8740   29.8000   33.8570 H     352  INH352      0.0642
     52  H17       37.6060   29.6330   33.2470 H     352  INH352      0.0636
     53  H18       37.8260   31.3230   31.4230 H     352  INH352      0.0621
     54  H19       38.9640   27.9190   34.4910 H     352  INH352      0.1551
     55  H20       40.5970   28.9070   38.5880 H     352  INH352      0.0659
     56  H21       38.3750   24.6600   37.3760 H     352  INH352      0.0830
     57  H22       38.9670   26.2690   35.5680 H     352  INH352      0.0640
     58  H23       40.8970   25.5400   41.4890 H     352  INH352      0.0487
     59  H24       39.1080   25.5310   41.3310 H     352  INH352      0.0487
     60  H25       40.0680   25.8060   43.7150 H     352  INH352      0.0575
     61  H26       38.8290   26.9990   43.1970 H     352  INH352      0.0575
     62  H27       39.2840   29.0170   42.7020 H     352  INH352      0.0575
     63  H28       40.9300   29.7190   42.8530 H     352  INH352      0.0575
     64  H29       41.6710   28.6420   40.8200 H     352  INH352      0.0487
     65  H30       40.0770   29.3840   40.4510 H     352  INH352      0.0487
@<TRIPOS>BOND
     1     1     2    2
     2     2     8    1
     3     2     3   am
     4     3    36    1
     5     3     4    1
     6     4    38    1
     7     4    37    1
     8     4     5    1
     9     5    39    1
    10     5     7    1
    11     5     6    1
    12     6    41    1
    13     6    40    1
    14     6     7    1
    15     7    43    1
    16     7    42    1
    17     8    11   ar
    18     8     9   ar
    19     9    44    1
    20     9    10   ar
    21    10    45    1
    22    10    13   ar
    23    11    12   ar
    24    11    46    1
    25    12    13   ar
    26    12    47    1
    27    13    14    1
    28    14    17   ar
    29    14    15   ar
    30    15    20   ar
    31    15    16    1
    32    16    50    1
    33    16    49    1
    34    16    48    1
    35    17    18   ar
    36    17    51    1
    37    18    19   ar
    38    18    21    1
    39    19    20   ar
    40    19    52    1
    41    20    53    1
    42    21    54    1
    43    21    22   am
    44    22    24    1
    45    22    23    2
    46    24    29   ar
    47    24    25   ar
    48    25    55    1
    49    25    26   ar
    50    26    30    1
    51    26    27   ar
    52    27    28   ar
    53    28    56    1
    54    28    29   ar
    55    29    57    1
    56    30    35    1
    57    30    31    1
    58    31    59    1
    59    31    58    1
    60    31    32    1
    61    32    61    1
    62    32    60    1
    63    32    33    1
    64    33    34    1
    65    34    63    1
    66    34    62    1
    67    34    35    1
    68    35    65    1
    69    35    64    1
