@<TRIPOS>MOLECULE
/tmp/ewbell/vina_3d83_3d83_lig/vina/vina4.pdbqt
 38 42 0 0 0
SMALL
GASTEIGER

@<TRIPOS>ATOM
      1  C12       46.3450   32.2040   29.8450 C.ar  352  INH352     -0.0180
      2  C13       47.0110   33.4400   29.9040 C.ar  352  INH352     -0.0510
      3  C14       46.3260   34.6480   30.5010 C.3   352  INH352      0.0490
      4  C15       47.0320   31.1110   29.2880 C.ar  352  INH352      0.0420
      5  C16       48.3380   31.2560   28.7580 C.ar  352  INH352      0.0350
      6  C17       48.9770   32.5010   28.8080 C.ar  352  INH352      0.0300
      7  C18       48.3080   33.5950   29.3910 C.ar  352  INH352      0.0100
      8  N2        49.0010   30.2070   28.1870 N.am  352  INH352     -0.3230
      9  H19       48.6700   29.8870   27.2990 H     352  INH352      0.1690
     10  C19       50.0710   29.5590   28.7160 C.2   352  INH352      0.2560
     11  O2        50.6550   28.6270   28.1730 O.2   352  INH352     -0.2670
     12  C20       50.5860   29.9490   30.0980 C.3   352  INH352      0.0370
     13  C24       50.0140   29.3840   31.2500 C.2   352  INH352      0.0340
     14  C23       50.5380   29.7430   32.4970 C.2   352  INH352      0.0900
     15  N3        51.5800   30.6020   32.5840 N.pl3 352  INH352     -0.3520
     16  C22       52.1630   31.1690   31.4970 C.2   352  INH352      0.1040
     17  H3        51.9430   30.8350   33.5080 H     352  INH352      0.1660
     18  C21       51.6800   30.8360   30.2140 C.2   352  INH352      0.0650
     19  N4        53.2760   32.0340   31.6410 N.pl3 352  INH352     -0.3630
     20  C28       53.0190   33.4820   31.7890 C.3   352  INH352      0.1500
     21  C27       54.2310   34.1420   32.4520 C.3   352  INH352      0.1870
     22  O3        55.4290   33.7180   31.8060 O.3   352  INH352     -0.3880
     23  C26       55.6650   32.3530   32.1410 C.3   352  INH352      0.1870
     24  C25       54.6120   31.4600   31.4810 C.3   352  INH352      0.1500
     25  C11       45.0380   32.1450   30.3840 C.ar  352  INH352     -0.0250
     26  C8        44.5620   33.1420   31.2320 C.ar  352  INH352      0.0130
     27  C7        43.2290   33.1070   31.6980 C.ar  352  INH352      0.0180
     28  C6        42.3620   32.0820   31.3180 C.ar  352  INH352      0.0320
     29  C9        42.8310   31.0870   30.4560 C.ar  352  INH352      0.0180
     30  C10       44.1620   31.1240   29.9900 C.ar  352  INH352      0.0130
     31  C1        40.9180   32.0540   31.8380 C.2   352  INH352      0.2510
     32  O1        40.0430   32.7240   31.2760 O.2   352  INH352     -0.2680
     33  N1        40.6410   31.3220   32.9360 N.am  352  INH352     -0.3560
     34  H1        39.7030   31.3260   33.2840 H     352  INH352      0.1620
     35  C2        41.6410   30.5250   33.6460 C.3   352  INH352      0.1270
     36  C3        40.9970   29.4390   34.5210 C.3   352  INH352      0.0030
     37  C5        39.6480   29.8930   35.0780 C.3   352  INH352      0.0070
     38  C4        40.8930   29.9580   35.9550 C.3   352  INH352      0.0070
@<TRIPOS>BOND
     1     9     8    1
     2    11    10    2
     3     8    10   am
     4     8     5    1
     5    10    12    1
     6     5     6   ar
     7     5     4   ar
     8     6     7   ar
     9     4     1   ar
    10     7     2   ar
    11     1     2   ar
    12     1    25    1
    13     2     3    1
    14    30    25   ar
    15    30    29   ar
    16    12    18    1
    17    12    13    1
    18    18    16    2
    19    25    26   ar
    20    29    28   ar
    21    26    27   ar
    22    13    14    2
    23    32    31    2
    24    28    27   ar
    25    28    31    1
    26    24    19    1
    27    24    23    1
    28    16    19    1
    29    16    15    1
    30    19    20    1
    31    20    21    1
    32    22    23    1
    33    22    21    1
    34    31    33   am
    35    14    15    1
    36    15    17    1
    37    33    34    1
    38    33    35    1
    39    35    36    1
    40    36    37    1
    41    36    38    1
    42    37    38    1
