@<TRIPOS>MOLECULE
/tmp/ewbell/vina_3d83_3d83_lig/vina/vina3.pdbqt
 38 42 0 0 0
SMALL
GASTEIGER

@<TRIPOS>ATOM
      1  C12       50.1520   29.9960   30.7870 C.ar  352  INH352     -0.0180
      2  C13       50.6300   30.2100   32.0910 C.ar  352  INH352     -0.0510
      3  C14       50.9040   29.0390   33.0050 C.3   352  INH352      0.0490
      4  C15       49.9220   31.1200   29.9750 C.ar  352  INH352      0.0420
      5  C16       50.1200   32.4340   30.4670 C.ar  352  INH352      0.0350
      6  C17       50.5780   32.6280   31.7750 C.ar  352  INH352      0.0300
      7  C18       50.8390   31.5070   32.5870 C.ar  352  INH352      0.0100
      8  N2        49.8700   33.5340   29.6960 N.am  352  INH352     -0.3230
      9  H19       50.5880   34.2280   29.6460 H     352  INH352      0.1690
     10  C19       48.7330   33.7700   28.9910 C.2   352  INH352      0.2560
     11  O2        48.5410   34.7630   28.2970 O.2   352  INH352     -0.2670
     12  C20       47.5700   32.7870   29.0770 C.3   352  INH352      0.0370
     13  C24       47.6250   31.5670   28.3830 C.2   352  INH352      0.0340
     14  C23       46.5520   30.6780   28.5160 C.2   352  INH352      0.0900
     15  N3        45.4980   30.9850   29.3070 N.pl3 352  INH352     -0.3520
     16  C22       45.4060   32.1500   29.9970 C.2   352  INH352      0.1040
     17  H3        44.7370   30.3100   29.3890 H     352  INH352      0.1660
     18  C21       46.4640   33.0800   29.9060 C.2   352  INH352      0.0650
     19  N4        44.2980   32.4070   30.8420 N.pl3 352  INH352     -0.3630
     20  C28       43.0870   31.5760   30.6750 C.3   352  INH352      0.1500
     21  C27       42.2630   31.6240   31.9640 C.3   352  INH352      0.1870
     22  O3        42.1160   32.9740   32.3970 O.3   352  INH352     -0.3880
     23  C26       43.3760   33.4340   32.8800 C.3   352  INH352      0.1870
     24  C25       44.3650   33.5750   31.7200 C.3   352  INH352      0.1500
     25  C11       49.9680   28.6540   30.3760 C.ar  352  INH352     -0.0250
     26  C8        48.7010   28.0750   30.3460 C.ar  352  INH352      0.0130
     27  C7        48.5280   26.7600   29.8610 C.ar  352  INH352      0.0180
     28  C6        49.6140   26.0170   29.3980 C.ar  352  INH352      0.0320
     29  C9        50.8850   26.5980   29.4130 C.ar  352  INH352      0.0180
     30  C10       51.0570   27.9120   29.8960 C.ar  352  INH352      0.0130
     31  C1        49.4100   24.5870   28.8800 C.2   352  INH352      0.2510
     32  O1        49.0490   24.3960   27.7110 O.2   352  INH352     -0.2680
     33  N1        49.5920   23.5580   29.7320 N.am  352  INH352     -0.3560
     34  H1        49.4350   22.6290   29.3950 H     352  INH352      0.1620
     35  C2        50.0030   23.7300   31.1250 C.3   352  INH352      0.1270
     36  C3        48.8020   23.7580   32.0820 C.3   352  INH352      0.0030
     37  C5        48.9600   24.8410   33.1490 C.3   352  INH352      0.0070
     38  C4        49.2810   23.3900   33.4860 C.3   352  INH352      0.0070
@<TRIPOS>BOND
     1    32    31    2
     2    11    10    2
     3    13    14    2
     4    13    12    1
     5    14    15    1
     6    31    28    1
     7    31    33   am
     8    10    12    1
     9    10     8   am
    10    12    18    1
    11    15    17    1
    12    15    16    1
    13    34    33    1
    14    28    29   ar
    15    28    27   ar
    16    29    30   ar
    17     9     8    1
    18     8     5    1
    19    33    35    1
    20    27    26   ar
    21    30    25   ar
    22    18    16    2
    23     4     5   ar
    24     4     1   ar
    25    16    19    1
    26    26    25   ar
    27    25     1    1
    28     5     6   ar
    29    20    19    1
    30    20    21    1
    31     1     2   ar
    32    19    24    1
    33    35    36    1
    34    24    23    1
    35     6     7   ar
    36    21    22    1
    37    36    37    1
    38    36    38    1
    39     2     7   ar
    40     2     3    1
    41    22    23    1
    42    37    38    1
