@<TRIPOS>MOLECULE
/tmp/ewbell/vina_3d83_3d83_lig/vina/vina2.pdbqt
 38 42 0 0 0
SMALL
GASTEIGER

@<TRIPOS>ATOM
      1  C12       39.0820   22.1890   38.4110 C.ar  352  INH352     -0.0180
      2  C13       38.1150   21.4650   39.1300 C.ar  352  INH352     -0.0510
      3  C14       37.3380   22.1290   40.2430 C.3   352  INH352      0.0490
      4  C15       39.7690   21.5260   37.3790 C.ar  352  INH352      0.0420
      5  C16       39.5330   20.1570   37.1000 C.ar  352  INH352      0.0350
      6  C17       38.5800   19.4480   37.8420 C.ar  352  INH352      0.0300
      7  C18       37.8650   20.1110   38.8580 C.ar  352  INH352      0.0100
      8  N2        40.2180   19.4950   36.1210 N.am  352  INH352     -0.3230
      9  H19       39.7970   19.4590   35.2150 H     352  INH352      0.1690
     10  C19       41.4220   18.8830   36.2670 C.2   352  INH352      0.2560
     11  O2        42.0200   18.3060   35.3640 O.2   352  INH352     -0.2670
     12  C20       42.0900   18.8410   37.6370 C.3   352  INH352      0.0370
     13  C24       42.8610   19.9280   38.0800 C.2   352  INH352      0.0340
     14  C23       43.4290   19.8640   39.3570 C.2   352  INH352      0.0900
     15  N3        43.2230   18.7860   40.1480 N.pl3 352  INH352     -0.3520
     16  C22       42.4820   17.7160   39.7620 C.2   352  INH352      0.1040
     17  H3        43.6440   18.7760   41.0780 H     352  INH352      0.1660
     18  C21       41.8800   17.7310   38.4860 C.2   352  INH352      0.0650
     19  N4        42.2650   16.6280   40.6430 N.pl3 352  INH352     -0.3630
     20  C28       40.9000   16.0690   40.7380 C.3   352  INH352      0.1500
     21  C27       40.9790   14.6380   41.2760 C.3   352  INH352      0.1870
     22  O3        41.8200   14.5980   42.4270 O.3   352  INH352     -0.3880
     23  C26       43.1690   14.7900   42.0090 C.3   352  INH352      0.1870
     24  C25       43.3680   16.2250   41.5150 C.3   352  INH352      0.1500
     25  C11       39.2670   23.5480   38.7600 C.ar  352  INH352     -0.0250
     26  C8        40.1880   23.9230   39.7360 C.ar  352  INH352      0.0130
     27  C7        40.4140   25.2890   40.0160 C.ar  352  INH352      0.0180
     28  C6        39.7300   26.2870   39.3240 C.ar  352  INH352      0.0320
     29  C9        38.8160   25.9160   38.3340 C.ar  352  INH352      0.0180
     30  C10       38.5910   24.5520   38.0530 C.ar  352  INH352      0.0130
     31  C1        39.9820   27.7670   39.6440 C.2   352  INH352      0.2510
     32  O1        40.6110   28.4760   38.8480 O.2   352  INH352     -0.2680
     33  N1        39.5440   28.2570   40.8210 N.am  352  INH352     -0.3560
     34  H1        39.7320   29.2160   41.0340 H     352  INH352      0.1620
     35  C2        38.8100   27.4590   41.8030 C.3   352  INH352      0.1270
     36  C3        39.3310   27.6790   43.2300 C.3   352  INH352      0.0030
     37  C5        40.8590   27.7020   43.2730 C.3   352  INH352      0.0070
     38  C4        40.1080   26.4370   43.6700 C.3   352  INH352      0.0070
@<TRIPOS>BOND
     1     9     8    1
     2    11    10    2
     3     8    10   am
     4     8     5    1
     5    10    12    1
     6     5     4   ar
     7     5     6   ar
     8     4     1   ar
     9    12    13    1
    10    12    18    1
    11     6     7   ar
    12    30    29   ar
    13    30    25   ar
    14    13    14    2
    15    29    28   ar
    16     1    25    1
    17     1     2   ar
    18    18    16    2
    19    25    26   ar
    20    32    31    2
    21     7     2   ar
    22     2     3    1
    23    28    31    1
    24    28    27   ar
    25    14    15    1
    26    31    33   am
    27    26    27   ar
    28    16    15    1
    29    16    19    1
    30    15    17    1
    31    19    20    1
    32    19    24    1
    33    20    21    1
    34    33    34    1
    35    33    35    1
    36    21    22    1
    37    24    23    1
    38    35    36    1
    39    23    22    1
    40    36    37    1
    41    36    38    1
    42    37    38    1
