@<TRIPOS>MOLECULE
/tmp/ewbell/vina_3d83_3d83_lig/vina/vina1.pdbqt
 38 42 0 0 0
SMALL
GASTEIGER

@<TRIPOS>ATOM
      1  C12       45.2590   30.0560   29.9680 C.ar  352  INH352     -0.0180
      2  C13       45.6760   31.3130   29.4960 C.ar  352  INH352     -0.0510
      3  C14       44.9170   32.5610   29.8810 C.3   352  INH352      0.0490
      4  C15       46.0070   28.9280   29.5880 C.ar  352  INH352      0.0420
      5  C16       47.1190   29.0430   28.7170 C.ar  352  INH352      0.0350
      6  C17       47.5060   30.3020   28.2420 C.ar  352  INH352      0.0300
      7  C18       46.7810   31.4410   28.6410 C.ar  352  INH352      0.0100
      8  N2        47.8330   27.9490   28.3170 N.am  352  INH352     -0.3230
      9  H19       47.4920   27.4490   27.5210 H     352  INH352      0.1690
     10  C19       48.9650   27.4800   28.9020 C.2   352  INH352      0.2560
     11  O2        49.5920   26.5000   28.5120 O.2   352  INH352     -0.2670
     12  C20       49.5020   28.1530   30.1610 C.3   352  INH352      0.0370
     13  C24       49.7800   27.3890   31.3060 C.2   352  INH352      0.0340
     14  C23       50.3040   28.0400   32.4290 C.2   352  INH352      0.0900
     15  N3        50.5480   29.3710   32.4010 N.pl3 352  INH352     -0.3520
     16  C22       50.2970   30.1450   31.3150 C.2   352  INH352      0.1040
     17  H3        50.9390   29.8120   33.2340 H     352  INH352      0.1660
     18  C21       49.7760   29.5390   30.1520 C.2   352  INH352      0.0650
     19  N4        50.6070   31.5280   31.3240 N.pl3 352  INH352     -0.3630
     20  C28       50.1630   32.3490   30.1770 C.3   352  INH352      0.1500
     21  C27       50.1000   33.8180   30.6060 C.3   352  INH352      0.1870
     22  O3        51.3010   34.1770   31.2860 O.3   352  INH352     -0.3880
     23  C26       51.3080   33.5380   32.5600 C.3   352  INH352      0.1870
     24  C25       51.4760   32.0260   32.3900 C.3   352  INH352      0.1500
     25  C11       44.1310   30.0250   30.8230 C.ar  352  INH352     -0.0250
     26  C8        43.2510   28.9460   30.8170 C.ar  352  INH352      0.0130
     27  C7        42.1750   28.8980   31.7310 C.ar  352  INH352      0.0180
     28  C6        41.9730   29.9210   32.6570 C.ar  352  INH352      0.0320
     29  C9        42.8620   30.9980   32.6760 C.ar  352  INH352      0.0180
     30  C10       43.9370   31.0460   31.7650 C.ar  352  INH352      0.0130
     31  C1        40.7950   29.8570   33.6390 C.2   352  INH352      0.2510
     32  O1        40.9680   29.4350   34.7900 O.2   352  INH352     -0.2680
     33  N1        39.5730   30.2260   33.2070 N.am  352  INH352     -0.3560
     34  H1        38.8040   30.1610   33.8450 H     352  INH352      0.1620
     35  C2        39.3110   30.7160   31.8540 C.3   352  INH352      0.1270
     36  C3        39.8570   32.1350   31.6390 C.3   352  INH352      0.0030
     37  C5        39.1640   32.8320   30.4680 C.3   352  INH352      0.0070
     38  C4        40.5370   32.2000   30.2700 C.3   352  INH352      0.0070
@<TRIPOS>BOND
     1     9     8    1
     2     6     7   ar
     3     6     5   ar
     4     8     5    1
     5     8    10   am
     6    11    10    2
     7     7     2   ar
     8     5     4   ar
     9    10    12    1
    10     2     3    1
    11     2     1   ar
    12     4     1   ar
    13     1    25    1
    14    18    12    1
    15    18    16    2
    16    12    13    1
    17    20    21    1
    18    20    19    1
    19    38    37    1
    20    38    36    1
    21    37    36    1
    22    21    22    1
    23    26    25   ar
    24    26    27   ar
    25    25    30   ar
    26    22    23    1
    27    13    14    2
    28    16    19    1
    29    16    15    1
    30    19    24    1
    31    36    35    1
    32    27    28   ar
    33    30    29   ar
    34    35    33    1
    35    24    23    1
    36    15    14    1
    37    15    17    1
    38    28    29   ar
    39    28    31    1
    40    33    31   am
    41    33    34    1
    42    31    32    2
