@<TRIPOS>MOLECULE
/tmp/ewbell/vina_3d83_3d83_lig/vina/vina5.pdbqt
 38 42 0 0 0
SMALL
GASTEIGER

@<TRIPOS>ATOM
      1  C12       49.9330   29.8000   30.8870 C.ar  352  INH352     -0.0180
      2  C13       50.5230   29.8390   32.1620 C.ar  352  INH352     -0.0510
      3  C14       50.6440   28.5780   32.9850 C.3   352  INH352      0.0490
      4  C15       49.8540   31.0000   30.1590 C.ar  352  INH352      0.0420
      5  C16       50.3100   32.2240   30.7090 C.ar  352  INH352      0.0350
      6  C17       50.8760   32.2460   31.9890 C.ar  352  INH352      0.0300
      7  C18       50.9870   31.0430   32.7140 C.ar  352  INH352      0.0100
      8  N2        50.2090   33.4010   30.0220 N.am  352  INH352     -0.3230
      9  H19       50.9760   34.0380   30.0940 H     352  INH352      0.1690
     10  C19       49.1590   33.7840   29.2490 C.2   352  INH352      0.2560
     11  O2        49.1020   34.8430   28.6340 O.2   352  INH352     -0.2670
     12  C20       47.9270   32.8910   29.1500 C.3   352  INH352      0.0370
     13  C24       47.9200   31.7920   28.2760 C.2   352  INH352      0.0340
     14  C23       46.7820   30.9790   28.2390 C.2   352  INH352      0.0900
     15  N3        45.7230   31.2400   29.0400 N.pl3 352  INH352     -0.3520
     16  C22       45.6890   32.2890   29.9010 C.2   352  INH352      0.1040
     17  H3        44.9130   30.6210   28.9950 H     352  INH352      0.1660
     18  C21       46.8130   33.1380   29.9840 C.2   352  INH352      0.0650
     19  N4        44.5710   32.4980   30.7450 N.pl3 352  INH352     -0.3630
     20  C28       43.4350   31.5560   30.6430 C.3   352  INH352      0.1500
     21  C27       42.6220   31.6070   31.9400 C.3   352  INH352      0.1870
     22  O3        42.3620   32.9620   32.2970 O.3   352  INH352     -0.3880
     23  C26       43.5820   33.5570   32.7350 C.3   352  INH352      0.1870
     24  C25       44.5440   33.7150   31.5550 C.3   352  INH352      0.1500
     25  C11       49.4910   28.5400   30.4150 C.ar  352  INH352     -0.0250
     26  C8        50.3380   27.4340   30.4090 C.ar  352  INH352      0.0130
     27  C7        49.8560   26.1690   30.0080 C.ar  352  INH352      0.0180
     28  C6        48.5280   25.9970   29.6160 C.ar  352  INH352      0.0320
     29  C9        47.6710   27.1000   29.6340 C.ar  352  INH352      0.0180
     30  C10       48.1530   28.3640   30.0360 C.ar  352  INH352      0.0130
     31  C1        48.0220   24.6160   29.1760 C.2   352  INH352      0.2510
     32  O1        47.6450   23.7950   30.0220 O.2   352  INH352     -0.2680
     33  N1        48.0370   24.3100   27.8640 N.am  352  INH352     -0.3560
     34  H1        47.7280   23.4010   27.5850 H     352  INH352      0.1620
     35  C2        48.4870   25.2380   26.8250 C.3   352  INH352      0.1270
     36  C3        49.8750   24.8680   26.2830 C.3   352  INH352      0.0030
     37  C5        50.8870   25.9890   26.5190 C.3   352  INH352      0.0070
     38  C4        50.2350   25.8300   25.1510 C.3   352  INH352      0.0070
@<TRIPOS>BOND
     1    38    36    1
     2    38    37    1
     3    36    37    1
     4    36    35    1
     5    35    33    1
     6    34    33    1
     7    33    31   am
     8    14    13    2
     9    14    15    1
    10    13    12    1
    11    11    10    2
    12    17    15    1
    13    15    16    1
    14    12    10    1
    15    12    18    1
    16    31    28    1
    17    31    32    2
    18    10     8   am
    19    28    29   ar
    20    28    27   ar
    21    29    30   ar
    22    16    18    2
    23    16    19    1
    24    27    26   ar
    25     8     9    1
    26     8     5    1
    27    30    25   ar
    28     4     5   ar
    29     4     1   ar
    30    26    25   ar
    31    25     1    1
    32    20    19    1
    33    20    21    1
    34     5     6   ar
    35    19    24    1
    36     1     2   ar
    37    24    23    1
    38    21    22    1
    39     6     7   ar
    40     2     7   ar
    41     2     3    1
    42    22    23    1
