@<TRIPOS>MOLECULE
./ligand/3cd7_lig.pdb
 75 78 0 0 0
SMALL
GASTEIGER

@<TRIPOS>ATOM
      1  N1        -4.3760  -16.1490    5.9810 N.ar  1620  INH1620    -0.3366
      2  C1        -4.3140  -16.1660    7.3370 C.ar  1620  INH1620     0.0280
      3  C2        -5.5920  -15.9230    7.7830 C.ar  1620  INH1620     0.0113
      4  C3        -3.2050  -16.4030    5.0930 C.3   1620  INH1620     0.0293
      5  C4        -3.1160  -16.4370    8.2070 C.3   1620  INH1620    -0.0093
      6  C5        -2.1360  -15.2810    8.1590 C.3   1620  INH1620    -0.0214
      7  C6        -0.6060  -14.0780    9.6930 C.3   1620  INH1620    -0.0002
      8  C7        -2.8120  -15.1510    4.3140 C.3   1620  INH1620    -0.0445
      9  C8        -7.1230  -16.4340   11.2280 C.ar  1620  INH1620    -0.0259
     10  C9        -7.8560  -15.3700    1.7450 C.ar  1620  INH1620    -0.0405
     11  C10       -8.2580  -15.3070    0.4130 C.ar  1620  INH1620    -0.0600
     12  C11       -5.4220  -14.6960    9.8940 C.ar  1620  INH1620    -0.0512
     13  C12       -9.6900  -14.1710    7.7540 C.ar  1620  INH1620    -0.0259
     14  C13       -5.7090  -14.4730   11.2350 C.ar  1620  INH1620    -0.0259
     15  C14       -7.4350  -17.7250    1.5040 C.ar  1620  INH1620    -0.0405
     16  C15      -10.5800  -15.1290    7.2720 C.ar  1620  INH1620     0.1234
     17  O1        -1.9920  -10.9220   12.8300 O.co2 1620  INH1620    -0.2463
     18  C16       -2.1480  -11.1360   11.6070 C.2   1620  INH1620     0.3585
     19  O2        -3.1260  -10.6980   10.9630 O.co2 1620  INH1620    -0.2463
     20  C17       -1.1020  -11.9480   10.8740 C.3   1620  INH1620     0.0752
     21  C18       -1.5500  -13.3910   10.6700 C.3   1620  INH1620     0.0678
     22  O3        -1.5070  -14.1440   11.8700 O.3   1620  INH1620    -0.3912
     23  C19       -1.1460  -15.4480    9.3040 C.3   1620  INH1620     0.0579
     24  O4        -0.0930  -16.2950    8.8810 O.3   1620  INH1620    -0.3917
     25  C20       -5.9720  -15.7880    9.2190 C.ar  1620  INH1620    -0.0154
     26  C21       -6.5650  -15.3430   11.9010 C.ar  1620  INH1620     0.1234
     27  F1        -6.8450  -15.1280   13.1980 F     1620  INH1620    -0.2055
     28  C22       -6.8300  -16.6620    9.8810 C.ar  1620  INH1620    -0.0512
     29  C23       -3.5440  -17.5670    4.1810 C.3   1620  INH1620    -0.0445
     30  C24       -5.6510  -15.8990    5.5750 C.ar  1620  INH1620     0.1135
     31  C25       -6.4000  -15.6960    6.7190 C.ar  1620  INH1620     0.0201
     32  C26       -7.8510  -15.4500    6.8870 C.ar  1620  INH1620    -0.0149
     33  C27       -8.3230  -14.3390    7.5750 C.ar  1620  INH1620    -0.0512
     34  F2       -11.8950  -14.9480    7.4520 F     1620  INH1620    -0.2055
     35  C28      -10.1090  -16.2560    6.6060 C.ar  1620  INH1620    -0.0259
     36  C29       -8.7380  -16.4220    6.4260 C.ar  1620  INH1620    -0.0512
     37  C30       -6.2030  -15.7470    4.2020 C.2   1620  INH1620     0.2654
     38  O5        -5.8090  -14.7540    3.6000 O.2   1620  INH1620    -0.2682
     39  N2        -7.0030  -16.6740    3.6510 N.am  1620  INH1620    -0.2803
     40  C31       -7.4340  -16.5800    2.3050 C.ar  1620  INH1620     0.0337
     41  C32       -7.8480  -17.6630    0.1750 C.ar  1620  INH1620    -0.0600
     42  C33       -8.2600  -16.4530   -0.3770 C.ar  1620  INH1620    -0.0616
     43  H1        -2.3480  -16.6910    5.7190 H     1620  INH1620     0.0522
     44  H2        -2.6140  -17.3490    7.8530 H     1620  INH1620     0.0329
     45  H3        -3.4510  -16.5820    9.2450 H     1620  INH1620     0.0329
     46  H4        -2.6770  -14.3300    8.2700 H     1620  INH1620     0.0294
     47  H5        -1.5990  -15.2880    7.1990 H     1620  INH1620     0.0294
     48  H6        -0.5060  -13.4580    8.7900 H     1620  INH1620     0.0315
     49  H7         0.3800  -14.1980   10.1660 H     1620  INH1620     0.0315
     50  H8        -1.9480  -15.3750    3.6720 H     1620  INH1620     0.0249
     51  H9        -2.5470  -14.3490    5.0180 H     1620  INH1620     0.0249
     52  H10       -3.6580  -14.8270    3.6900 H     1620  INH1620     0.0249
     53  H11       -7.7880  -17.1080   11.7550 H     1620  INH1620     0.0646
     54  H12       -7.8700  -14.4730    2.3530 H     1620  INH1620     0.0636
     55  H13       -8.5710  -14.3600   -0.0110 H     1620  INH1620     0.0618
     56  H14       -4.7640  -14.0150    9.3660 H     1620  INH1620     0.0624
     57  H15      -10.0650  -13.2940    8.2690 H     1620  INH1620     0.0646
     58  H16       -5.2700  -13.6300   11.7560 H     1620  INH1620     0.0646
     59  H17       -7.1110  -18.6720    1.9210 H     1620  INH1620     0.0636
     60  H18       -0.9190  -11.4890    9.8910 H     1620  INH1620     0.0404
     61  H19       -0.1710  -11.9430   11.4600 H     1620  INH1620     0.0404
     62  H20       -2.5750  -13.3940   10.2710 H     1620  INH1620     0.0599
     63  H21       -1.7930  -15.0330   11.6960 H     1620  INH1620     0.2098
     64  H22       -1.6530  -15.9000   10.1700 H     1620  INH1620     0.0594
     65  H23       -0.4460  -17.1440    8.6420 H     1620  INH1620     0.2098
     66  H24       -7.2640  -17.5070    9.3590 H     1620  INH1620     0.0624
     67  H25       -2.6920  -17.7720    3.5160 H     1620  INH1620     0.0249
     68  H26       -4.4280  -17.3140    3.5770 H     1620  INH1620     0.0249
     69  H27       -3.7580  -18.4590    4.7890 H     1620  INH1620     0.0249
     70  H28       -7.6280  -13.6070    7.9700 H     1620  INH1620     0.0624
     71  H29      -10.8030  -16.9990    6.2300 H     1620  INH1620     0.0646
     72  H30       -8.3600  -17.3070    5.9270 H     1620  INH1620     0.0624
     73  H31       -7.3020  -17.4510    4.2050 H     1620  INH1620     0.1552
     74  H32       -7.8490  -18.5610   -0.4320 H     1620  INH1620     0.0618
     75  H33       -8.5790  -16.4040   -1.4120 H     1620  INH1620     0.0618
@<TRIPOS>BOND
     1    75    42    1
     2    74    41    1
     3    42    41   ar
     4    42    11   ar
     5    55    11    1
     6    41    15   ar
     7    11    10   ar
     8    15    59    1
     9    15    40   ar
    10    10    40   ar
    11    10    54    1
    12    40    39    1
    13    67    29    1
    14    68    29    1
    15    38    37    2
    16    39    37   am
    17    39    73    1
    18    50     8    1
    19    52     8    1
    20    29    69    1
    21    29     4    1
    22    37    30    1
    23     8    51    1
    24     8     4    1
    25     4    43    1
    26     4     1    1
    27    30     1   ar
    28    30    31   ar
    29    72    36    1
    30     1     2   ar
    31    71    35    1
    32    36    35   ar
    33    36    32   ar
    34    35    16   ar
    35    31    32    1
    36    31     3   ar
    37    32    33   ar
    38    47     6    1
    39    16    34    1
    40    16    13   ar
    41     2     3   ar
    42     2     5    1
    43    33    13   ar
    44    33    70    1
    45    13    57    1
    46     3    25    1
    47    44     5    1
    48     6     5    1
    49     6    46    1
    50     6    23    1
    51     5    45    1
    52    65    24    1
    53    48     7    1
    54    24    23    1
    55    25    28   ar
    56    25    12   ar
    57    23     7    1
    58    23    64    1
    59    66    28    1
    60    56    12    1
    61     7    49    1
    62     7    21    1
    63    28     9   ar
    64    60    20    1
    65    12    14   ar
    66    62    21    1
    67    21    20    1
    68    21    22    1
    69    20    61    1
    70    20    18    1
    71    19    18   ar
    72     9    53    1
    73     9    26   ar
    74    14    58    1
    75    14    26   ar
    76    18    17   ar
    77    63    22    1
    78    26    27    1
