@<TRIPOS>MOLECULE
/tmp/ewbell/vina_3cd7_3cd7_lig/vina/vina1.pdbqt
 46 49 0 0 0
SMALL
GASTEIGER

@<TRIPOS>ATOM
      1  N1        -4.3680  -16.8870    9.7550 N.ar  1620  INH1620    -0.3400
      2  C1        -5.4030  -16.0250    9.9230 C.ar  1620  INH1620     0.0250
      3  C2        -6.3490  -16.3740    8.9880 C.ar  1620  INH1620     0.0100
      4  C24       -4.6420  -17.7540    8.7420 C.ar  1620  INH1620     0.1160
      5  C25       -5.8690  -17.3830    8.2230 C.ar  1620  INH1620     0.0200
      6  C4        -5.5390  -14.9290   10.9460 C.3   1620  INH1620     0.0610
      7  C5        -5.2000  -13.5790   10.3440 C.3   1620  INH1620     0.0380
      8  C19       -3.7140  -13.3200   10.5630 C.3   1620  INH1620     0.1200
      9  C6        -3.5170  -11.8520   10.9210 C.3   1620  INH1620     0.0640
     10  C18       -2.0900  -11.4170   10.6180 C.3   1620  INH1620     0.1300
     11  C17       -1.1230  -12.2250   11.4760 C.3   1620  INH1620     0.1410
     12  C16        0.1290  -12.5940   10.7110 C.2   1620  INH1620     0.1410
     13  O2         0.1600  -13.6870   10.1030 O.2   1620  INH1620    -0.6500
     14  O1         1.0940  -11.7970   10.7200 O.3   1620  INH1620    -0.7760
     15  H          1.9660  -12.1190   10.8450 H     1620  INH1620     0.1670
     16  O3        -2.0250  -10.0290   10.8920 O.3   1620  INH1620    -0.3950
     17  H21       -2.5250   -9.8370   11.6770 H     1620  INH1620     0.2100
     18  O4        -3.0120  -13.6410    9.3760 O.3   1620  INH1620    -0.3950
     19  H23       -3.6340  -13.8180    8.6790 H     1620  INH1620     0.2100
     20  C3        -3.1350  -16.8790   10.5950 C.3   1620  INH1620     0.0820
     21  C23       -3.1460  -18.1220   11.4660 C.3   1620  INH1620     0.0320
     22  C7        -1.8760  -16.7820    9.7390 C.3   1620  INH1620     0.0320
     23  C20       -7.6310  -15.6420    8.7740 C.ar  1620  INH1620    -0.0230
     24  C11       -8.7230  -16.0980    9.5150 C.ar  1620  INH1620     0.0150
     25  C13       -9.9660  -15.4900    9.3940 C.ar  1620  INH1620     0.0430
     26  C21      -10.1130  -14.4070    8.5340 C.ar  1620  INH1620     0.1160
     27  C8        -9.0210  -13.9420    7.7950 C.ar  1620  INH1620     0.0430
     28  F1       -11.3140  -13.8160    8.4170 F     1620  INH1620    -0.2060
     29  C22       -7.7720  -14.5580    7.9120 C.ar  1620  INH1620     0.0150
     30  C30       -3.8090  -18.8440    8.1660 C.2   1620  INH1620     0.2730
     31  O5        -3.8330  -19.8940    8.7980 O.2   1620  INH1620    -0.2660
     32  N2        -3.1550  -18.6980    7.0030 N.am  1620  INH1620    -0.3220
     33  H31       -2.6670  -19.4800    6.6160 H     1620  INH1620     0.1690
     34  C31       -3.1370  -17.4630    6.3080 C.ar  1620  INH1620     0.0350
     35  C9        -2.6030  -16.3020    6.8750 C.ar  1620  INH1620     0.0290
     36  C10       -2.5850  -15.1060    6.1600 C.ar  1620  INH1620     0.0020
     37  C33       -3.1160  -15.0470    4.8750 C.ar  1620  INH1620     0.0000
     38  C32       -3.6570  -16.1980    4.3060 C.ar  1620  INH1620     0.0020
     39  C14       -3.6640  -17.3960    5.0160 C.ar  1620  INH1620     0.0290
     40  C26       -6.6880  -18.0030    7.1550 C.ar  1620  INH1620    -0.0220
     41  C29       -6.7810  -17.3390    5.9330 C.ar  1620  INH1620     0.0150
     42  C28       -7.5000  -17.9070    4.8840 C.ar  1620  INH1620     0.0430
     43  C15       -8.0980  -19.1520    5.0600 C.ar  1620  INH1620     0.1160
     44  C12       -7.9820  -19.8250    6.2750 C.ar  1620  INH1620     0.0430
     45  F2        -8.7980  -19.7140    4.0660 F     1620  INH1620    -0.2060
     46  C27       -7.2630  -19.2570    7.3180 C.ar  1620  INH1620     0.0150
@<TRIPOS>BOND
     1    45    43    1
     2    38    37   ar
     3    38    39   ar
     4    37    36   ar
     5    42    43   ar
     6    42    41   ar
     7    39    34   ar
     8    43    44   ar
     9    41    40   ar
    10    36    35   ar
    11    44    46   ar
    12    34    35   ar
    13    34    32    1
    14    33    32    1
    15    32    30   am
    16    40    46   ar
    17    40     5    1
    18    27    29   ar
    19    27    26   ar
    20    29    23   ar
    21    30     4    1
    22    30    31    2
    23     5     4   ar
    24     5     3   ar
    25    28    26    1
    26    26    25   ar
    27    19    18    1
    28     4     1   ar
    29    23     3    1
    30    23    24   ar
    31     3     2   ar
    32    18     8    1
    33    25    24   ar
    34    22    20    1
    35     1     2   ar
    36     1    20    1
    37     2     6    1
    38    13    12    2
    39     7     8    1
    40     7     6    1
    41     8     9    1
    42    20    21    1
    43    10    16    1
    44    10     9    1
    45    10    11    1
    46    12    14    1
    47    12    11    1
    48    14    15    1
    49    16    17    1
