@<TRIPOS>MOLECULE
/tmp/ewbell/vina_3cd7_3cd7_lig/vina/vina5.pdbqt
 46 49 0 0 0
SMALL
GASTEIGER

@<TRIPOS>ATOM
      1  N1        -7.3260  -17.2020    8.9780 N.ar  1620  INH1620    -0.3400
      2  C1        -5.9860  -17.2470    8.7640 C.ar  1620  INH1620     0.0250
      3  C2        -5.8030  -17.0010    7.4240 C.ar  1620  INH1620     0.0100
      4  C24       -7.9770  -16.9390    7.8120 C.ar  1620  INH1620     0.1160
      5  C25       -7.0120  -16.8750    6.8240 C.ar  1620  INH1620     0.0200
      6  C4        -4.8930  -17.4740    9.7740 C.3   1620  INH1620     0.0610
      7  C5        -4.2540  -16.1630   10.1880 C.3   1620  INH1620     0.0380
      8  C19       -2.7490  -16.3780   10.2900 C.3   1620  INH1620     0.1200
      9  C6        -2.0380  -15.1130    9.8250 C.3   1620  INH1620     0.0640
     10  C18       -2.3060  -13.9670   10.7900 C.3   1620  INH1620     0.1300
     11  C17       -1.6680  -12.6920   10.2500 C.3   1620  INH1620     0.1410
     12  C16       -0.4550  -12.2880   11.0590 C.2   1620  INH1620     0.1410
     13  O2         0.6610  -12.7520   10.7400 O.2   1620  INH1620    -0.6500
     14  O1        -0.6130  -11.5100   12.0270 O.3   1620  INH1620    -0.7760
     15  H         -0.0570  -10.7610   12.1210 H     1620  INH1620     0.1670
     16  O3        -1.7610  -14.3550   12.0390 O.3   1620  INH1620    -0.3950
     17  H21       -0.8880  -14.7060   11.9090 H     1620  INH1620     0.2100
     18  O4        -2.3860  -17.4790    9.4770 O.3   1620  INH1620    -0.3950
     19  H23       -3.1700  -17.8770    9.1150 H     1620  INH1620     0.2100
     20  C3        -7.9600  -17.3850   10.3160 C.3   1620  INH1620     0.0820
     21  C23       -7.3830  -18.6390   10.9470 C.3   1620  INH1620     0.0320
     22  C7        -7.7730  -16.1540   11.1970 C.3   1620  INH1620     0.0320
     23  C20       -4.4790  -17.0210    6.7370 C.ar  1620  INH1620    -0.0230
     24  C11       -3.8020  -15.8010    6.6840 C.ar  1620  INH1620     0.0150
     25  C13       -2.5600  -15.7050    6.0680 C.ar  1620  INH1620     0.0430
     26  C21       -1.9870  -16.8440    5.5130 C.ar  1620  INH1620     0.1160
     27  C8        -2.6580  -18.0690    5.5680 C.ar  1620  INH1620     0.0430
     28  F1        -0.7850  -16.7540    4.9180 F     1620  INH1620    -0.2060
     29  C22       -3.9100  -18.1650    6.1830 C.ar  1620  INH1620     0.0150
     30  C30       -9.4340  -16.8330    7.5350 C.2   1620  INH1620     0.2730
     31  O5        -9.8460  -15.6860    7.3990 O.2   1620  INH1620    -0.2660
     32  N2       -10.2070  -17.9180    7.3690 N.am  1620  INH1620    -0.3220
     33  H31      -11.1660  -17.8000    7.1110 H     1620  INH1620     0.1690
     34  C31       -9.6990  -19.2280    7.5490 C.ar  1620  INH1620     0.0350
     35  C9        -8.9720  -19.8850    6.5500 C.ar  1620  INH1620     0.0290
     36  C10       -8.4700  -21.1670    6.7640 C.ar  1620  INH1620     0.0020
     37  C33       -8.7000  -21.8200    7.9710 C.ar  1620  INH1620     0.0000
     38  C32       -9.4300  -21.1760    8.9680 C.ar  1620  INH1620     0.0020
     39  C14       -9.9220  -19.8900    8.7590 C.ar  1620  INH1620     0.0290
     40  C26       -7.1310  -16.5590    5.3820 C.ar  1620  INH1620    -0.0220
     41  C29       -7.3970  -17.6060    4.5010 C.ar  1620  INH1620     0.0150
     42  C28       -7.5660  -17.3490    3.1430 C.ar  1620  INH1620     0.0430
     43  C15       -7.4950  -16.0380    2.6810 C.ar  1620  INH1620     0.1160
     44  C12       -7.2530  -14.9900    3.5670 C.ar  1620  INH1620     0.0430
     45  F2        -7.6500  -15.7690    1.3780 F     1620  INH1620    -0.2060
     46  C27       -7.0870  -15.2490    4.9210 C.ar  1620  INH1620     0.0150
@<TRIPOS>BOND
     1    45    43    1
     2    43    42   ar
     3    43    44   ar
     4    42    41   ar
     5    44    46   ar
     6    41    40   ar
     7    28    26    1
     8    46    40   ar
     9    40     5    1
    10    26    27   ar
    11    26    25   ar
    12    27    29   ar
    13    25    24   ar
    14    29    23   ar
    15    35    36   ar
    16    35    34   ar
    17    24    23   ar
    18    23     3    1
    19    36    37   ar
    20     5     3   ar
    21     5     4   ar
    22    33    32    1
    23    32    30   am
    24    32    34    1
    25    31    30    2
    26     3     2   ar
    27    30     4    1
    28    34    39   ar
    29     4     1   ar
    30    37    38   ar
    31    39    38   ar
    32     2     1   ar
    33     2     6    1
    34     1    20    1
    35    19    18    1
    36    18     8    1
    37     6     7    1
    38     9     8    1
    39     9    10    1
    40     7     8    1
    41    11    10    1
    42    11    12    1
    43    20    21    1
    44    20    22    1
    45    13    12    2
    46    10    16    1
    47    12    14    1
    48    17    16    1
    49    14    15    1
