@<TRIPOS>MOLECULE
/tmp/ewbell/vina_3cd7_3cd7_lig/vina/vina4.pdbqt
 46 49 0 0 0
SMALL
GASTEIGER

@<TRIPOS>ATOM
      1  N1        -7.0540  -17.8920    9.0720 N.ar  1620  INH1620    -0.3400
      2  C1        -7.6670  -17.5080    7.9240 C.ar  1620  INH1620     0.0250
      3  C2        -6.6630  -17.1940    7.0380 C.ar  1620  INH1620     0.0100
      4  C24       -5.7030  -17.8210    8.9260 C.ar  1620  INH1620     0.1160
      5  C25       -5.4650  -17.3200    7.6600 C.ar  1620  INH1620     0.0200
      6  C4        -9.1430  -17.4650    7.6300 C.3   1620  INH1620     0.0610
      7  C5        -9.6860  -16.0570    7.7750 C.3   1620  INH1620     0.0380
      8  C19      -10.9200  -15.9290    6.8890 C.3   1620  INH1620     0.1200
      9  C6       -10.4890  -16.0150    5.4300 C.3   1620  INH1620     0.0640
     10  C18      -11.6680  -16.4070    4.5500 C.3   1620  INH1620     0.1300
     11  C17      -12.0310  -15.2370    3.6420 C.3   1620  INH1620     0.1410
     12  C16      -13.3320  -14.5880    4.0600 C.2   1620  INH1620     0.1410
     13  O2       -14.3730  -14.8690    3.4270 O.2   1620  INH1620    -0.6500
     14  O1       -13.3200  -13.7850    5.0200 O.3   1620  INH1620    -0.7760
     15  H        -13.3550  -12.8620    4.8590 H     1620  INH1620     0.1670
     16  O3       -12.7250  -16.7590    5.4250 O.3   1620  INH1620    -0.3950
     17  H21      -12.3840  -16.8750    6.3040 H     1620  INH1620     0.2100
     18  O4       -11.5460  -14.6870    7.1500 O.3   1620  INH1620    -0.3950
     19  H23      -10.9130  -13.9850    7.0420 H     1620  INH1620     0.2100
     20  C3        -7.7840  -18.3500   10.2900 C.3   1620  INH1620     0.0820
     21  C23       -8.5910  -17.1830   10.8270 C.3   1620  INH1620     0.0320
     22  C7        -8.6520  -19.5700    9.9950 C.3   1620  INH1620     0.0320
     23  C20       -6.8870  -16.6580    5.6650 C.ar  1620  INH1620    -0.0230
     24  C11       -7.1300  -17.6100    4.6720 C.ar  1620  INH1620     0.0150
     25  C13       -7.3530  -17.2230    3.3570 C.ar  1620  INH1620     0.0430
     26  C21       -7.3460  -15.8710    3.0350 C.ar  1620  INH1620     0.1160
     27  C8        -7.1090  -14.9130    4.0270 C.ar  1620  INH1620     0.0430
     28  F1        -7.5630  -15.4940    1.7640 F     1620  INH1620    -0.2060
     29  C22       -6.8790  -15.3020    5.3490 C.ar  1620  INH1620     0.0150
     30  C30       -4.6210  -18.1000    9.9080 C.2   1620  INH1620     0.2730
     31  O5        -4.2700  -19.2740    9.9620 O.2   1620  INH1620    -0.2660
     32  N2        -4.0300  -17.1210   10.6120 N.am  1620  INH1620    -0.3220
     33  H31       -3.2580  -17.3450   11.2060 H     1620  INH1620     0.1690
     34  C31       -4.4730  -15.7780   10.5350 C.ar  1620  INH1620     0.0350
     35  C9        -5.7210  -15.3800   11.0260 C.ar  1620  INH1620     0.0290
     36  C10       -6.1220  -14.0480   10.9510 C.ar  1620  INH1620     0.0020
     37  C33       -5.2910  -13.0950   10.3690 C.ar  1620  INH1620     0.0000
     38  C32       -4.0500  -13.4850    9.8700 C.ar  1620  INH1620     0.0020
     39  C14       -3.6430  -14.8140    9.9560 C.ar  1620  INH1620     0.0290
     40  C26       -4.1910  -17.0920    6.9400 C.ar  1620  INH1620    -0.0220
     41  C29       -3.6870  -18.1280    6.1560 C.ar  1620  INH1620     0.0150
     42  C28       -2.5170  -17.9430    5.4230 C.ar  1620  INH1620     0.0430
     43  C15       -1.8760  -16.7080    5.4590 C.ar  1620  INH1620     0.1160
     44  C12       -2.3960  -15.6650    6.2240 C.ar  1620  INH1620     0.0430
     45  F2        -0.7480  -16.5090    4.7650 F     1620  INH1620    -0.2060
     46  C27       -3.5630  -15.8530    6.9520 C.ar  1620  INH1620     0.0150
@<TRIPOS>BOND
     1    28    26    1
     2    26    25   ar
     3    26    27   ar
     4    25    24   ar
     5    13    12    2
     6    11    12    1
     7    11    10    1
     8    27    29   ar
     9    12    14    1
    10    10    16    1
    11    10     9    1
    12    24    23   ar
    13    45    43    1
    14    15    14    1
    15    29    23   ar
    16    42    43   ar
    17    42    41   ar
    18    16    17    1
    19     9     8    1
    20    43    44   ar
    21    23     3    1
    22    41    40   ar
    23    44    46   ar
    24     8    18    1
    25     8     7    1
    26    40    46   ar
    27    40     5    1
    28     3     5   ar
    29     3     2   ar
    30    19    18    1
    31     6     7    1
    32     6     2    1
    33     5     4   ar
    34     2     1   ar
    35     4     1   ar
    36     4    30    1
    37     1    20    1
    38    38    39   ar
    39    38    37   ar
    40    30    31    2
    41    30    32   am
    42    39    34   ar
    43    22    20    1
    44    20    21    1
    45    37    36   ar
    46    34    32    1
    47    34    35   ar
    48    32    33    1
    49    36    35   ar
