@<TRIPOS>MOLECULE
/tmp/ewbell/vina_3cd7_3cd7_lig/vina/vina3.pdbqt
 46 49 0 0 0
SMALL
GASTEIGER

@<TRIPOS>ATOM
      1  N1        -4.1930  -16.8310    6.7710 N.ar  1620  INH1620    -0.3400
      2  C1        -5.3020  -16.2600    6.2360 C.ar  1620  INH1620     0.0250
      3  C2        -6.3390  -16.5640    7.0860 C.ar  1620  INH1620     0.0100
      4  C24       -4.5120  -17.4820    7.9240 C.ar  1620  INH1620     0.1160
      5  C25       -5.8800  -17.3610    8.0820 C.ar  1620  INH1620     0.0200
      6  C4        -5.4040  -15.4210    4.9910 C.3   1620  INH1620     0.0610
      7  C5        -6.0390  -16.2030    3.8580 C.3   1620  INH1620     0.0380
      8  C19       -7.2240  -15.4020    3.3330 C.3   1620  INH1620     0.1200
      9  C6        -7.6860  -16.0120    2.0150 C.3   1620  INH1620     0.0640
     10  C18       -8.5200  -15.0100    1.2290 C.3   1620  INH1620     0.1300
     11  C17       -9.8550  -15.6460    0.8570 C.3   1620  INH1620     0.1410
     12  C16      -10.9260  -15.3340    1.8790 C.2   1620  INH1620     0.1410
     13  O2       -11.1930  -16.1910    2.7510 O.2   1620  INH1620    -0.6500
     14  O1       -11.5160  -14.2320    1.8120 O.3   1620  INH1620    -0.7760
     15  H        -11.3060  -13.6300    1.1250 H     1620  INH1620     0.1670
     16  O3        -7.7560  -14.6560    0.0890 O.3   1620  INH1620    -0.3950
     17  H21       -8.0410  -13.8080   -0.2320 H     1620  INH1620     0.2100
     18  O4        -6.8230  -14.0580    3.1450 O.3   1620  INH1620    -0.3950
     19  H23       -7.5800  -13.4880    3.2200 H     1620  INH1620     0.2100
     20  C3        -2.8300  -16.7160    6.1760 C.3   1620  INH1620     0.0820
     21  C23       -2.7580  -17.6370    4.9720 C.3   1620  INH1620     0.0320
     22  C7        -2.4950  -15.2710    5.8210 C.3   1620  INH1620     0.0320
     23  C20       -7.7630  -16.1890    6.8470 C.ar  1620  INH1620    -0.0230
     24  C11       -8.1570  -14.9480    7.3510 C.ar  1620  INH1620     0.0150
     25  C13       -9.4610  -14.4970    7.1850 C.ar  1620  INH1620     0.0430
     26  C21      -10.3730  -15.2900    6.4970 C.ar  1620  INH1620     0.1160
     27  C8        -9.9800  -16.5310    5.9850 C.ar  1620  INH1620     0.0430
     28  F1       -11.6340  -14.8550    6.3330 F     1620  INH1620    -0.2060
     29  C22       -8.6710  -16.9870    6.1570 C.ar  1620  INH1620     0.0150
     30  C30       -3.6530  -18.2820    8.8380 C.2   1620  INH1620     0.2730
     31  O5        -3.7490  -19.4960    8.6960 O.2   1620  INH1620    -0.2660
     32  N2        -2.7890  -17.7050    9.6870 N.am  1620  INH1620    -0.3220
     33  H31       -2.1790  -18.2820   10.2300 H     1620  INH1620     0.1690
     34  C31       -2.7180  -16.2970    9.8340 C.ar  1620  INH1620     0.0350
     35  C9        -1.6540  -15.5510    9.3150 C.ar  1620  INH1620     0.0290
     36  C10       -1.6210  -14.1660    9.4620 C.ar  1620  INH1620     0.0020
     37  C33       -2.6400  -13.5060   10.1420 C.ar  1620  INH1620     0.0000
     38  C32       -3.6990  -14.2430   10.6680 C.ar  1620  INH1620     0.0020
     39  C14       -3.7380  -15.6270   10.5120 C.ar  1620  INH1620     0.0290
     40  C26       -6.7640  -17.8150    9.1810 C.ar  1620  INH1620    -0.0220
     41  C29       -7.0440  -16.9170   10.2100 C.ar  1620  INH1620     0.0150
     42  C28       -7.9080  -17.2830   11.2390 C.ar  1620  INH1620     0.0430
     43  C15       -8.5090  -18.5380   11.2130 C.ar  1620  INH1620     0.1160
     44  C12       -8.2470  -19.4250   10.1700 C.ar  1620  INH1620     0.0430
     45  F2        -9.3410  -18.9120   12.1940 F     1620  INH1620    -0.2060
     46  C27       -7.3870  -19.0560    9.1450 C.ar  1620  INH1620     0.0150
@<TRIPOS>BOND
     1    17    16    1
     2    16    10    1
     3    11    10    1
     4    11    12    1
     5    15    14    1
     6    10     9    1
     7    14    12    1
     8    12    13    2
     9     9     8    1
    10    18    19    1
    11    18     8    1
    12     8     7    1
    13     7     6    1
    14    21    20    1
    15     6     2    1
    16    22    20    1
    17    27    29   ar
    18    27    26   ar
    19    29    23   ar
    20    20     1    1
    21     2     1   ar
    22     2     3   ar
    23    28    26    1
    24    26    25   ar
    25     1     4   ar
    26    23     3    1
    27    23    24   ar
    28     3     5   ar
    29    25    24   ar
    30     4     5   ar
    31     4    30    1
    32     5    40    1
    33    31    30    2
    34    30    32   am
    35    46    40   ar
    36    46    44   ar
    37    40    41   ar
    38    35    36   ar
    39    35    34   ar
    40    36    37   ar
    41    32    34    1
    42    32    33    1
    43    34    39   ar
    44    37    38   ar
    45    44    43   ar
    46    41    42   ar
    47    39    38   ar
    48    43    42   ar
    49    43    45    1
