@<TRIPOS>MOLECULE
/tmp/ewbell/vina_3cd7_3cd7_lig/vina/vina2.pdbqt
 46 49 0 0 0
SMALL
GASTEIGER

@<TRIPOS>ATOM
      1  N1        -4.3600  -16.2480    8.0680 N.ar  1620  INH1620    -0.3400
      2  C1        -5.4140  -15.7970    8.7950 C.ar  1620  INH1620     0.0250
      3  C2        -6.4980  -15.8130    7.9490 C.ar  1620  INH1620     0.0100
      4  C24       -4.7570  -16.5370    6.7990 C.ar  1620  INH1620     0.1160
      5  C25       -6.0950  -16.2010    6.7150 C.ar  1620  INH1620     0.0200
      6  C4        -5.4370  -15.3970   10.2460 C.3   1620  INH1620     0.0610
      7  C5        -5.7970  -13.9320   10.4000 C.3   1620  INH1620     0.0380
      8  C19       -4.6390  -13.2280   11.0980 C.3   1620  INH1620     0.1200
      9  C6        -4.0650  -12.1750   10.1590 C.3   1620  INH1620     0.0640
     10  C18       -2.9320  -11.4180   10.8370 C.3   1620  INH1620     0.1300
     11  C17       -1.6300  -11.6790   10.0880 C.3   1620  INH1620     0.1410
     12  C16       -0.6200  -12.3980   10.9560 C.2   1620  INH1620     0.1410
     13  O2        -0.9030  -13.5370   11.3870 O.2   1620  INH1620    -0.6500
     14  O1         0.4600  -11.8230   11.2200 O.3   1620  INH1620    -0.7760
     15  H          1.2720  -12.2000   10.9420 H     1620  INH1620     0.1670
     16  O3        -2.8840  -11.8780   12.1770 O.3   1620  INH1620    -0.3950
     17  H21       -3.0140  -12.8190   12.1930 H     1620  INH1620     0.2100
     18  O4        -3.6530  -14.1880   11.4320 O.3   1620  INH1620    -0.3950
     19  H23       -3.8460  -15.0070   10.9910 H     1620  INH1620     0.2100
     20  C3        -2.9850  -16.4200    8.6190 C.3   1620  INH1620     0.0820
     21  C23       -2.3030  -15.0640    8.6290 C.3   1620  INH1620     0.0320
     22  C7        -3.0130  -17.0640   10.0020 C.3   1620  INH1620     0.0320
     23  C20       -7.8610  -15.3310    8.3170 C.ar  1620  INH1620    -0.0230
     24  C11       -8.5900  -16.1620    9.1710 C.ar  1620  INH1620     0.0150
     25  C13       -9.8710  -15.8110    9.5790 C.ar  1620  INH1620     0.0430
     26  C21      -10.4200  -14.6120    9.1390 C.ar  1620  INH1620     0.1160
     27  C8        -9.6920  -13.7740    8.2890 C.ar  1620  INH1620     0.0430
     28  F1       -11.6590  -14.2700    9.5340 F     1620  INH1620    -0.2060
     29  C22       -8.4060  -14.1290    7.8740 C.ar  1620  INH1620     0.0150
     30  C30       -3.9630  -17.0180    5.6370 C.2   1620  INH1620     0.2730
     31  O5        -3.5570  -16.1310    4.8930 O.2   1620  INH1620    -0.2660
     32  N2        -3.6560  -18.3140    5.4730 N.am  1620  INH1620    -0.3220
     33  H31       -3.0590  -18.5830    4.7180 H     1620  INH1620     0.1690
     34  C31       -4.1570  -19.3130    6.3450 C.ar  1620  INH1620     0.0350
     35  C9        -3.3880  -19.8400    7.3880 C.ar  1620  INH1620     0.0290
     36  C10       -3.9150  -20.8090    8.2380 C.ar  1620  INH1620     0.0020
     37  C33       -5.2110  -21.2800    8.0510 C.ar  1620  INH1620     0.0000
     38  C32       -5.9800  -20.7660    7.0100 C.ar  1620  INH1620     0.0020
     39  C14       -5.4580  -19.7880    6.1660 C.ar  1620  INH1620     0.0290
     40  C26       -7.0570  -16.3560    5.5990 C.ar  1620  INH1620    -0.0220
     41  C29       -8.0310  -17.3480    5.7090 C.ar  1620  INH1620     0.0150
     42  C28       -8.9870  -17.5000    4.7060 C.ar  1620  INH1620     0.0430
     43  C15       -8.9760  -16.6370    3.6150 C.ar  1620  INH1620     0.1160
     44  C12       -8.0160  -15.6310    3.5200 C.ar  1620  INH1620     0.0430
     45  F2        -9.8830  -16.7680    2.6380 F     1620  INH1620    -0.2060
     46  C27       -7.0660  -15.4800    4.5210 C.ar  1620  INH1620     0.0150
@<TRIPOS>BOND
     1    45    43    1
     2    44    43   ar
     3    44    46   ar
     4    43    42   ar
     5    46    40   ar
     6    42    41   ar
     7    33    32    1
     8    31    30    2
     9    32    30   am
    10    32    34    1
    11    40    41   ar
    12    40     5    1
    13    30     4    1
    14    39    34   ar
    15    39    38   ar
    16    34    35   ar
    17     5     4   ar
    18     5     3   ar
    19     4     1   ar
    20    38    37   ar
    21    35    36   ar
    22    29    27   ar
    23    29    23   ar
    24     3    23    1
    25     3     2   ar
    26    37    36   ar
    27     1    20    1
    28     1     2   ar
    29    27    26   ar
    30    23    24   ar
    31    20    21    1
    32    20    22    1
    33     2     6    1
    34    26    28    1
    35    26    25   ar
    36    24    25   ar
    37    11    10    1
    38    11    12    1
    39     9    10    1
    40     9     8    1
    41     6     7    1
    42     7     8    1
    43    10    16    1
    44    15    14    1
    45    12    14    1
    46    12    13    2
    47    19    18    1
    48     8    18    1
    49    16    17    1
