@<TRIPOS>MOLECULE
./ligand/1uld_lig.pdb
 71 73 0 0 0
SMALL
GASTEIGER

@<TRIPOS>ATOM
      1  C1        39.1080   11.1550   40.8120 C.3   609  INH609      0.1888
      2  C2        40.3820   11.9750   40.6070 C.3   609  INH609      0.1406
      3  C3        40.6030   12.9650   41.7570 C.3   609  INH609      0.1144
      4  C4        39.3280   13.7730   42.0460 C.3   609  INH609      0.1119
      5  C5        38.1510   12.8120   42.2400 C.3   609  INH609      0.1130
      6  C6        36.8370   13.5210   42.4990 C.3   609  INH609      0.0730
      7  O1        41.4990   11.0660   40.5330 O.3   609  INH609     -0.3378
      8  O2        41.6590   13.8510   41.4080 O.3   609  INH609     -0.3864
      9  O3        39.0630   14.6550   40.9590 O.3   609  INH609     -0.3865
     10  O4        37.9800   12.0080   41.0530 O.3   609  INH609     -0.3405
     11  O5        35.7450   12.6130   42.4610 O.3   609  INH609     -0.3924
     12  C7        36.9530    6.9960   38.4270 C.3   609  INH609      0.1776
     13  C8        36.1220    8.2700   38.3360 C.3   609  INH609      0.1021
     14  C9        37.0540    9.4720   38.4250 C.3   609  INH609      0.1068
     15  C10       37.8800    9.4050   39.7110 C.3   609  INH609      0.1177
     16  C11       38.5850    8.0390   39.8260 C.3   609  INH609      0.1133
     17  C12       39.2820    7.8420   41.1590 C.3   609  INH609      0.0730
     18  C13       34.1140    7.9380   37.0790 C.2   609  INH609      0.2104
     19  C14       33.4770    7.6890   35.7240 C.3   609  INH609      0.0122
     20  N1        35.3890    8.2970   37.0890 N.am  609  INH609     -0.3053
     21  O6        36.1210    5.8970   38.3540 O.3   609  INH609     -0.3654
     22  O7        36.3020   10.6740   38.3960 O.3   609  INH609     -0.3871
     23  O8        38.8690   10.4410   39.6570 O.3   609  INH609     -0.3402
     24  O9        37.6300    6.9610   39.6880 O.3   609  INH609     -0.3414
     25  O10       38.4220    8.1640   42.2440 O.3   609  INH609     -0.3924
     26  O11       33.4540    7.8040   38.1070 O.2   609  INH609     -0.2761
     27  C15       42.5460   11.4130   39.6710 C.3   609  INH609      0.1884
     28  C16       43.6910   10.4010   39.8220 C.3   609  INH609      0.1341
     29  C17       43.2940    9.0430   39.2310 C.3   609  INH609      0.1140
     30  C18       42.7910    9.2030   37.7920 C.3   609  INH609      0.1095
     31  C19       41.6690   10.2460   37.7430 C.3   609  INH609      0.0873
     32  C20       41.1930   10.5360   36.3320 C.3   609  INH609     -0.0361
     33  O12       44.0120   10.2390   41.1990 O.3   609  INH609     -0.3841
     34  O13       44.4230    8.1830   39.2410 O.3   609  INH609     -0.3864
     35  O14       43.8650    9.6110   36.9580 O.3   609  INH609     -0.3866
     36  O15       42.1330   11.4940   38.3080 O.3   609  INH609     -0.3431
     37  H1        39.2420   10.4700   41.6620 H     609  INH609      0.0938
     38  H2        40.3020   12.5360   39.6640 H     609  INH609      0.0675
     39  H3        40.8820   12.4060   42.6620 H     609  INH609      0.0648
     40  H4        39.4700   14.3620   42.9640 H     609  INH609      0.0647
     41  H5        38.3750   12.1590   43.0960 H     609  INH609      0.0647
     42  H6        36.6880   14.2930   41.7290 H     609  INH609      0.0584
     43  H7        36.8750   13.9950   43.4910 H     609  INH609      0.0584
     44  H8        42.4460   13.3500   41.2300 H     609  INH609      0.2100
     45  H9        38.2750   15.1530   41.1410 H     609  INH609      0.2100
     46  H10       36.0670   11.7380   42.2790 H     609  INH609      0.2095
     47  H11       37.6840    6.9690   37.6060 H     609  INH609      0.0928
     48  H12       35.4090    8.3000   39.1730 H     609  INH609      0.0575
     49  H13       37.7360    9.4580   37.5620 H     609  INH609      0.0640
     50  H14       37.2250    9.5550   40.5820 H     609  INH609      0.0650
     51  H15       39.3310    7.9700   39.0210 H     609  INH609      0.0647
     52  H16       40.1680    8.4920   41.1990 H     609  INH609      0.0584
     53  H17       39.5940    6.7910   41.2490 H     609  INH609      0.0584
     54  H18       32.4240    7.4000   35.8610 H     609  INH609      0.0322
     55  H19       34.0150    6.8800   35.2090 H     609  INH609      0.0322
     56  H20       33.5300    8.6070   35.1200 H     609  INH609      0.0322
     57  H21       35.8400    8.5840   36.2440 H     609  INH609      0.1492
     58  H22       36.6390    5.1030   38.4110 H     609  INH609      0.2125
     59  H23       35.4470   10.5220   38.7820 H     609  INH609      0.2100
     60  H24       38.8830    8.0320   43.0640 H     609  INH609      0.2095
     61  H25       42.9170   12.4050   39.9700 H     609  INH609      0.0938
     62  H26       44.5740   10.7800   39.2870 H     609  INH609      0.0671
     63  H27       42.4940    8.6030   39.8450 H     609  INH609      0.0648
     64  H28       42.4020    8.2380   37.4350 H     609  INH609      0.0646
     65  H29       40.8210    9.8700   38.3330 H     609  INH609      0.0621
     66  H30       40.3910   11.2880   36.3630 H     609  INH609      0.0255
     67  H31       40.8100    9.6110   35.8770 H     609  INH609      0.0255
     68  H32       42.0330   10.9190   35.7330 H     609  INH609      0.0255
     69  H33       44.2580   11.0790   41.5680 H     609  INH609      0.2101
     70  H34       44.7360    8.0820   40.1320 H     609  INH609      0.2100
     71  H35       44.5570    8.9610   36.9920 H     609  INH609      0.2100
@<TRIPOS>BOND
     1     1    23    1
     2     1    37    1
     3     1    10    1
     4     1     2    1
     5     2    38    1
     6     2     7    1
     7     2     3    1
     8     3    39    1
     9     3     8    1
    10     3     4    1
    11     4    40    1
    12     4     9    1
    13     4     5    1
    14     5    41    1
    15     5    10    1
    16     5     6    1
    17     6    43    1
    18     6    42    1
    19     6    11    1
    20     7    27    1
    21     8    44    1
    22     9    45    1
    23    11    46    1
    24    12    13    1
    25    12    47    1
    26    12    24    1
    27    12    21    1
    28    13    20    1
    29    13    48    1
    30    13    14    1
    31    14    15    1
    32    14    49    1
    33    14    22    1
    34    15    16    1
    35    15    50    1
    36    15    23    1
    37    16    24    1
    38    16    51    1
    39    16    17    1
    40    17    53    1
    41    17    52    1
    42    17    25    1
    43    18    26    2
    44    18    20   am
    45    18    19    1
    46    19    56    1
    47    19    55    1
    48    19    54    1
    49    20    57    1
    50    21    58    1
    51    22    59    1
    52    25    60    1
    53    27    61    1
    54    27    36    1
    55    27    28    1
    56    28    62    1
    57    28    33    1
    58    28    29    1
    59    29    63    1
    60    29    34    1
    61    29    30    1
    62    30    64    1
    63    30    35    1
    64    30    31    1
    65    31    65    1
    66    31    36    1
    67    31    32    1
    68    32    68    1
    69    32    67    1
    70    32    66    1
    71    33    69    1
    72    34    70    1
    73    35    71    1
