@<TRIPOS>MOLECULE
/tmp/ewbell/vina_1uld_1uld_lig/vina/vina2.pdbqt
 46 48 0 0 0
SMALL
GASTEIGER

@<TRIPOS>ATOM
      1  C1        42.8740   15.4330   41.5200 C.3   609  INH609      0.2920
      2  C2        43.4440   14.9290   40.1930 C.3   609  INH609      0.2110
      3  C3        42.3300   14.6350   39.1810 C.3   609  INH609      0.1830
      4  C4        41.2270   13.7670   39.8060 C.3   609  INH609      0.1800
      5  C5        40.7550   14.4110   41.1140 C.3   609  INH609      0.1790
      6  O4        41.8700   14.5390   42.0220 O.3   609  INH609     -0.3480
      7  O8        43.9040   15.4820   42.4350 O.3   609  INH609     -0.3480
      8  C10       43.6890   14.8590   43.7080 C.3   609  INH609      0.1860
      9  C9        44.6250   13.6530   43.8080 C.3   609  INH609      0.1770
     10  C8        44.5850   13.0720   45.2160 C.3   609  INH609      0.1700
     11  C7        44.9440   14.1710   46.2100 C.3   609  INH609      0.2820
     12  O9        43.9800   15.2250   46.1200 O.3   609  INH609     -0.3490
     13  C11       43.9980   15.8740   44.8270 C.3   609  INH609      0.1790
     14  O7        44.2430   12.6660   42.8640 O.3   609  INH609     -0.3910
     15  H23       43.2950   12.6500   42.7880 H     609  INH609      0.2100
     16  N1        45.5200   11.9740   45.3310 N.am  609  INH609     -0.3490
     17  C13       45.0700   10.7720   45.6610 C.2   609  INH609      0.2140
     18  O11       45.8100    9.7990   45.7880 O.2   609  INH609     -0.2740
     19  C14       43.5760   10.6300   45.8820 C.3   609  INH609      0.1170
     20  H21       46.4950   12.1210   45.1610 H     609  INH609      0.1630
     21  O6        44.9070   13.6620   47.4930 O.3   609  INH609     -0.3690
     22  H22       45.6740   13.9510   47.9710 H     609  INH609      0.2120
     23  C12       42.9960   17.0100   44.8900 C.3   609  INH609      0.1980
     24  O10       43.4010   18.1020   44.0760 O.3   609  INH609     -0.3980
     25  H24       44.3460   18.1990   44.1220 H     609  INH609      0.2090
     26  O1        44.3210   15.9430   39.6630 O.3   609  INH609     -0.3460
     27  C15       45.6230   15.5480   39.3310 C.3   609  INH609      0.2920
     28  O15       46.5880   15.9700   40.2940 O.3   609  INH609     -0.3510
     29  C19       46.7230   17.4040   40.4230 C.3   609  INH609      0.1520
     30  C18       47.1580   18.0100   39.0840 C.3   609  INH609      0.1780
     31  C20       47.7170   17.6670   41.5400 C.3   609  INH609      0.0420
     32  C17       46.1670   17.6130   37.9840 C.3   609  INH609      0.1830
     33  C16       45.9850   16.0900   37.9410 C.3   609  INH609      0.2040
     34  O14       48.4550   17.5440   38.7430 O.3   609  INH609     -0.3900
     35  H35       48.6360   17.7480   37.8330 H     609  INH609      0.2100
     36  O13       46.6550   18.0590   36.7280 O.3   609  INH609     -0.3900
     37  H34       47.4270   17.5590   36.4930 H     609  INH609      0.2100
     38  O12       44.9530   15.7660   37.0150 O.3   609  INH609     -0.3880
     39  H33       44.5550   16.5660   36.6930 H     609  INH609      0.2100
     40  C6        39.6850   13.6060   41.8240 C.3   609  INH609      0.1980
     41  O5        38.3850   13.9930   41.4010 O.3   609  INH609     -0.3980
     42  H10       37.7670   13.3020   41.6040 H     609  INH609      0.2090
     43  O2        42.8900   13.9600   38.0610 O.3   609  INH609     -0.3900
     44  H8        43.3240   14.5880   37.4980 H     609  INH609      0.2100
     45  O3        41.7320   12.4600   40.0610 O.3   609  INH609     -0.3900
     46  H9        42.5780   12.5250   40.4870 H     609  INH609      0.2100
@<TRIPOS>BOND
     1    37    36    1
     2    39    38    1
     3    36    32    1
     4    38    33    1
     5    44    43    1
     6    35    34    1
     7    33    32    1
     8    33    27    1
     9    32    30    1
    10    43     3    1
    11    34    30    1
    12    30    29    1
    13     3     4    1
    14     3     2    1
    15    27    26    1
    16    27    28    1
    17    26     2    1
    18     4    45    1
    19     4     5    1
    20    45    46    1
    21     2     1    1
    22    28    29    1
    23    29    31    1
    24     5    40    1
    25     5     6    1
    26    41    42    1
    27    41    40    1
    28     1     6    1
    29     1     7    1
    30     7     8    1
    31    15    14    1
    32    14     9    1
    33     8     9    1
    34     8    13    1
    35     9    10    1
    36    24    25    1
    37    24    23    1
    38    13    23    1
    39    13    12    1
    40    20    16    1
    41    10    16    1
    42    10    11    1
    43    16    17   am
    44    17    18    2
    45    17    19    1
    46    12    11    1
    47    11    21    1
    48    21    22    1
