@<TRIPOS>MOLECULE
/tmp/ewbell/vina_1uld_1uld_lig/vina/vina4.pdbqt
 46 48 0 0 0
SMALL
GASTEIGER

@<TRIPOS>ATOM
      1  C1        43.4680   16.6330   42.8510 C.3   609  INH609      0.2920
      2  C2        43.9180   15.2150   42.4980 C.3   609  INH609      0.2110
      3  C3        43.5510   14.2180   43.6040 C.3   609  INH609      0.1830
      4  C4        43.9900   14.7340   44.9830 C.3   609  INH609      0.1800
      5  C5        43.4520   16.1530   45.1900 C.3   609  INH609      0.1790
      6  O4        43.9490   17.0180   44.1470 O.3   609  INH609     -0.3480
      7  O8        44.0030   17.4960   41.9190 O.3   609  INH609     -0.3480
      8  C10       45.1310   17.0380   41.1620 C.3   609  INH609      0.1860
      9  C9        44.9170   17.4410   39.7020 C.3   609  INH609      0.1770
     10  C8        46.1740   17.1580   38.8890 C.3   609  INH609      0.1700
     11  C7        47.3470   17.8930   39.5290 C.3   609  INH609      0.2820
     12  O9        47.5420   17.4050   40.8610 O.3   609  INH609     -0.3490
     13  C11       46.4120   17.6920   41.7180 C.3   609  INH609      0.1790
     14  O7        43.8180   16.7270   39.1610 O.3   609  INH609     -0.3910
     15  H23       44.0020   15.7940   39.1850 H     609  INH609      0.2100
     16  N1        45.9970   17.6010   37.5240 N.am  609  INH609     -0.3490
     17  C13       46.1750   16.7370   36.5350 C.2   609  INH609      0.2140
     18  O11       46.0540   17.0490   35.3520 O.2   609  INH609     -0.2740
     19  C14       46.5440   15.3160   36.9160 C.3   609  INH609      0.1170
     20  H21       45.7410   18.5480   37.3290 H     609  INH609      0.1630
     21  O6        48.4960   17.6420   38.8070 O.3   609  INH609     -0.3690
     22  H22       48.4140   18.0150   37.9390 H     609  INH609      0.2120
     23  C12       46.7750   17.1990   43.1060 C.3   609  INH609      0.1980
     24  O10       47.2450   15.8580   43.0710 O.3   609  INH609     -0.3980
     25  H24       48.1920   15.8550   42.9930 H     609  INH609      0.2090
     26  O1        43.2720   14.8280   41.2680 O.3   609  INH609     -0.3460
     27  C15       42.0170   14.2160   41.3730 C.3   609  INH609      0.2920
     28  O15       42.0890   12.7950   41.2840 O.3   609  INH609     -0.3510
     29  C19       42.5720   12.2930   40.0160 C.3   609  INH609      0.1520
     30  C18       41.6420   12.7490   38.8870 C.3   609  INH609      0.1780
     31  C20       42.6660   10.7830   40.1320 C.3   609  INH609      0.0420
     32  C17       41.5110   14.2760   38.9000 C.3   609  INH609      0.1830
     33  C16       41.0840   14.7720   40.2880 C.3   609  INH609      0.2040
     34  O14       40.3590   12.1630   39.0530 O.3   609  INH609     -0.3900
     35  H35       40.0600   12.3020   39.9440 H     609  INH609      0.2100
     36  O13       40.5400   14.6730   37.9440 O.3   609  INH609     -0.3900
     37  H34       40.1810   15.5170   38.1900 H     609  INH609      0.2100
     38  O12       41.1150   16.1950   40.3080 O.3   609  INH609     -0.3880
     39  H33       41.0280   16.5000   41.2030 H     609  INH609      0.2100
     40  C6        43.8630   16.7610   46.5160 C.3   609  INH609      0.1980
     41  O5        44.2520   15.7590   47.4440 O.3   609  INH609     -0.3980
     42  H10       43.8640   14.9290   47.1960 H     609  INH609      0.2090
     43  O2        44.1870   12.9750   43.3360 O.3   609  INH609     -0.3900
     44  H8        45.0960   13.0200   43.6100 H     609  INH609      0.2100
     45  O3        45.4130   14.7370   45.0630 O.3   609  INH609     -0.3900
     46  H9        45.6960   14.0680   45.6760 H     609  INH609      0.2100
@<TRIPOS>BOND
     1    18    17    2
     2    17    19    1
     3    17    16   am
     4    20    16    1
     5    16    10    1
     6    22    21    1
     7    36    37    1
     8    36    32    1
     9    21    11    1
    10    30    32    1
    11    30    34    1
    12    30    29    1
    13    10    11    1
    14    10     9    1
    15    32    33    1
    16    34    35    1
    17    14    15    1
    18    14     9    1
    19    11    12    1
    20     9     8    1
    21    29    31    1
    22    29    28    1
    23    33    38    1
    24    33    27    1
    25    38    39    1
    26    12    13    1
    27     8    13    1
    28     8     7    1
    29    26    27    1
    30    26     2    1
    31    28    27    1
    32    13    23    1
    33     7     1    1
    34     2     1    1
    35     2     3    1
    36     1     6    1
    37    25    24    1
    38    24    23    1
    39    43     3    1
    40    43    44    1
    41     3     4    1
    42     6     5    1
    43     4    45    1
    44     4     5    1
    45    45    46    1
    46     5    40    1
    47    40    41    1
    48    42    41    1
