@<TRIPOS>MOLECULE
/tmp/ewbell/vina_1uld_1uld_lig/vina/vina3.pdbqt
 46 48 0 0 0
SMALL
GASTEIGER

@<TRIPOS>ATOM
      1  C1        45.4660   17.2110   41.1480 C.3   609  INH609      0.2920
      2  C2        45.7100   15.8700   41.8410 C.3   609  INH609      0.2110
      3  C3        47.1750   15.7180   42.2670 C.3   609  INH609      0.1830
      4  C4        48.1280   16.0550   41.1090 C.3   609  INH609      0.1800
      5  C5        47.7630   17.4270   40.5350 C.3   609  INH609      0.1790
      6  O4        46.3950   17.4120   40.0740 O.3   609  INH609     -0.3480
      7  O8        44.1930   17.1920   40.6190 O.3   609  INH609     -0.3480
      8  C10       43.6330   15.9160   40.2830 C.3   609  INH609      0.1860
      9  C9        42.2150   15.8570   40.8540 C.3   609  INH609      0.1770
     10  C8        41.5000   14.6070   40.3570 C.3   609  INH609      0.1700
     11  C7        41.5130   14.6080   38.8320 C.3   609  INH609      0.2820
     12  O9        42.8680   14.5770   38.3700 O.3   609  INH609     -0.3490
     13  C11       43.6020   15.7650   38.7490 C.3   609  INH609      0.1790
     14  O7        42.2640   15.8570   42.2710 O.3   609  INH609     -0.3910
     15  H23       42.9400   15.2570   42.5650 H     609  INH609      0.2100
     16  N1        40.1370   14.5840   40.8410 N.am  609  INH609     -0.3490
     17  C13       39.7540   13.6090   41.6520 C.2   609  INH609      0.2140
     18  O11       38.6090   13.5210   42.0900 O.2   609  INH609     -0.2740
     19  C14       40.7990   12.5770   42.0330 C.3   609  INH609      0.1170
     20  H21       39.4920   15.2970   40.5670 H     609  INH609      0.1630
     21  O6        40.8740   13.4770   38.3650 O.3   609  INH609     -0.3690
     22  H22       41.4690   12.7380   38.4010 H     609  INH609      0.2120
     23  C12       44.9840   15.6430   38.1370 C.3   609  INH609      0.1980
     24  O10       45.4110   16.8770   37.5750 O.3   609  INH609     -0.3980
     25  H24       45.7300   17.4470   38.2640 H     609  INH609      0.2090
     26  O1        44.8600   15.7990   43.0040 O.3   609  INH609     -0.3460
     27  C15       45.2740   16.5070   44.1390 C.3   609  INH609      0.2920
     28  O15       45.7690   15.6540   45.1690 O.3   609  INH609     -0.3510
     29  C19       44.7910   14.7380   45.7150 C.3   609  INH609      0.1520
     30  C18       43.6270   15.5240   46.3290 C.3   609  INH609      0.1780
     31  C20       45.5070   13.8590   46.7240 C.3   609  INH609      0.0420
     32  C17       43.0240   16.4680   45.2830 C.3   609  INH609      0.1830
     33  C16       44.1100   17.3580   44.6650 C.3   609  INH609      0.2040
     34  O14       44.0880   16.2800   47.4380 O.3   609  INH609     -0.3900
     35  H35       44.8230   15.8340   47.8430 H     609  INH609      0.2100
     36  O13       42.0440   17.2890   45.8990 O.3   609  INH609     -0.3900
     37  H34       42.4730   17.9620   46.4130 H     609  INH609      0.2100
     38  O12       43.5460   18.1150   43.5980 O.3   609  INH609     -0.3880
     39  H33       43.2070   18.9340   43.9370 H     609  INH609      0.2100
     40  C6        48.6310   17.8330   39.3610 C.3   609  INH609      0.1980
     41  O5        48.0920   17.3620   38.1340 O.3   609  INH609     -0.3980
     42  H10       47.1450   17.3320   38.1940 H     609  INH609      0.2090
     43  O2        47.3960   14.3790   42.6920 O.3   609  INH609     -0.3900
     44  H8        46.8080   13.7980   42.2240 H     609  INH609      0.2100
     45  O3        48.0220   15.0580   40.0970 O.3   609  INH609     -0.3900
     46  H9        47.3690   15.3230   39.4600 H     609  INH609      0.2100
@<TRIPOS>BOND
     1    24    23    1
     2    24    25    1
     3    41    42    1
     4    41    40    1
     5    23    13    1
     6    21    22    1
     7    21    11    1
     8    12    13    1
     9    12    11    1
    10    13     8    1
    11    11    10    1
    12    40     5    1
    13    46    45    1
    14     6     5    1
    15     6     1    1
    16    45     4    1
    17     8     7    1
    18     8     9    1
    19    10    16    1
    20    10     9    1
    21     5     4    1
    22    20    16    1
    23     7     1    1
    24    16    17   am
    25     9    14    1
    26     4     3    1
    27     1     2    1
    28    17    19    1
    29    17    18    2
    30     2     3    1
    31     2    26    1
    32    44    43    1
    33     3    43    1
    34    14    15    1
    35    26    27    1
    36    38    39    1
    37    38    33    1
    38    27    33    1
    39    27    28    1
    40    33    32    1
    41    28    29    1
    42    32    36    1
    43    32    30    1
    44    29    30    1
    45    29    31    1
    46    36    37    1
    47    30    34    1
    48    34    35    1
