@<TRIPOS>MOLECULE
/tmp/ewbell/vina_1uld_1uld_lig/vina/vina5.pdbqt
 46 48 0 0 0
SMALL
GASTEIGER

@<TRIPOS>ATOM
      1  C1        44.1470   14.9500   37.3510 C.3   609  INH609      0.2920
      2  C2        44.4290   14.8430   38.8490 C.3   609  INH609      0.2110
      3  C3        45.0880   16.1180   39.3890 C.3   609  INH609      0.1830
      4  C4        46.2790   16.5400   38.5140 C.3   609  INH609      0.1800
      5  C5        45.8320   16.6150   37.0500 C.3   609  INH609      0.1790
      6  O4        45.3280   15.3290   36.6300 O.3   609  INH609     -0.3480
      7  O8        43.7470   13.7100   36.9010 O.3   609  INH609     -0.3480
      8  C10       42.6090   13.6550   36.0300 C.3   609  INH609      0.1860
      9  C9        43.0980   13.2460   34.6400 C.3   609  INH609      0.1770
     10  C8        41.9110   12.9760   33.7240 C.3   609  INH609      0.1700
     11  C7        41.0280   11.9120   34.3660 C.3   609  INH609      0.2820
     12  O9        40.5390   12.3970   35.6220 O.3   609  INH609     -0.3490
     13  C11       41.6060   12.6190   36.5740 C.3   609  INH609      0.1790
     14  O7        43.9110   14.2710   34.0920 O.3   609  INH609     -0.3910
     15  H23       43.3830   14.8300   33.5340 H     609  INH609      0.2100
     16  N1        42.3710   12.5240   32.4290 N.am  609  INH609     -0.3490
     17  C13       42.0190   13.1990   31.3450 C.2   609  INH609      0.2140
     18  O11       42.3630   12.8630   30.2130 O.2   609  INH609     -0.2740
     19  C14       41.1560   14.4310   31.5470 C.3   609  INH609      0.1170
     20  H21       42.9480   11.7110   32.3540 H     609  INH609      0.1630
     21  O6        39.9430   11.6600   33.5510 O.3   609  INH609     -0.3690
     22  H22       39.2600   12.2950   33.7270 H     609  INH609      0.2120
     23  C12       40.9540   13.0510   37.8730 C.3   609  INH609      0.1980
     24  O10       40.7870   14.4610   37.9240 O.3   609  INH609     -0.3980
     25  H24       41.6320   14.8850   37.8190 H     609  INH609      0.2090
     26  O1        43.1780   14.6230   39.5310 O.3   609  INH609     -0.3460
     27  C15       43.1390   14.9130   40.9010 C.3   609  INH609      0.2920
     28  O15       43.8090   13.9330   41.6910 O.3   609  INH609     -0.3510
     29  C19       43.2200   12.6120   41.6390 C.3   609  INH609      0.1520
     30  C18       41.7760   12.6640   42.1500 C.3   609  INH609      0.1780
     31  C20       44.1040   11.6890   42.4580 C.3   609  INH609      0.0420
     32  C17       40.9740   13.6940   41.3460 C.3   609  INH609      0.1830
     33  C16       41.6790   15.0560   41.3530 C.3   609  INH609      0.2040
     34  O14       41.7640   13.0220   43.5230 O.3   609  INH609     -0.3900
     35  H35       41.4390   12.2920   44.0380 H     609  INH609      0.2100
     36  O13       39.6830   13.8340   41.9190 O.3   609  INH609     -0.3900
     37  H34       39.2370   14.5700   41.5170 H     609  INH609      0.2100
     38  O12       40.9890   15.9460   40.4810 O.3   609  INH609     -0.3880
     39  H33       40.7890   15.5000   39.6670 H     609  INH609      0.2100
     40  C6        46.9520   16.9930   36.1020 C.3   609  INH609      0.1980
     41  O5        46.6660   18.2100   35.4270 O.3   609  INH609     -0.3980
     42  H10       45.7270   18.3040   35.3260 H     609  INH609      0.2090
     43  O2        45.5340   15.8820   40.7180 O.3   609  INH609     -0.3900
     44  H8        44.7830   15.7850   41.2910 H     609  INH609      0.2100
     45  O3        47.3350   15.5940   38.6530 O.3   609  INH609     -0.3900
     46  H9        47.9990   15.9450   39.2340 H     609  INH609      0.2100
@<TRIPOS>BOND
     1    18    17    2
     2    17    19    1
     3    17    16   am
     4    20    16    1
     5    16    10    1
     6    15    14    1
     7    21    22    1
     8    21    11    1
     9    10    11    1
    10    10     9    1
    11    14     9    1
    12    11    12    1
    13     9     8    1
    14    42    41    1
    15    41    40    1
    16    12    13    1
    17     8    13    1
    18     8     7    1
    19    40     5    1
    20    13    23    1
    21     6     5    1
    22     6     1    1
    23     7     1    1
    24     5     4    1
    25     1     2    1
    26    25    24    1
    27    23    24    1
    28     4    45    1
    29     4     3    1
    30    45    46    1
    31     2     3    1
    32     2    26    1
    33     3    43    1
    34    26    27    1
    35    39    38    1
    36    38    33    1
    37    43    44    1
    38    27    33    1
    39    27    28    1
    40    32    33    1
    41    32    36    1
    42    32    30    1
    43    37    36    1
    44    29    28    1
    45    29    30    1
    46    29    31    1
    47    30    34    1
    48    34    35    1
