@<TRIPOS>MOLECULE
/tmp/ewbell/vina_1uld_1uld_lig/vina/vina1.pdbqt
 46 48 0 0 0
SMALL
GASTEIGER

@<TRIPOS>ATOM
      1  C1        44.5750   16.0380   39.1080 C.3   609  INH609      0.2920
      2  C2        45.5300   16.3330   40.2660 C.3   609  INH609      0.2110
      3  C3        46.3740   17.5830   39.9920 C.3   609  INH609      0.1830
      4  C4        47.0140   17.5250   38.5960 C.3   609  INH609      0.1800
      5  C5        45.9310   17.2380   37.5520 C.3   609  INH609      0.1790
      6  O4        45.2800   15.9860   37.8600 O.3   609  INH609     -0.3480
      7  O8        44.0030   14.8040   39.3310 O.3   609  INH609     -0.3480
      8  C10       42.9620   14.3850   38.4380 C.3   609  INH609      0.1860
      9  C9        43.4510   13.1410   37.6930 C.3   609  INH609      0.1770
     10  C8        42.3130   12.5350   36.8800 C.3   609  INH609      0.1700
     11  C7        41.1480   12.2330   37.8160 C.3   609  INH609      0.2820
     12  O9        40.6890   13.4520   38.4110 O.3   609  INH609     -0.3490
     13  C11       41.6950   14.0600   39.2540 C.3   609  INH609      0.1790
     14  O7        44.5300   13.4820   36.8390 O.3   609  INH609     -0.3910
     15  H23       44.5730   14.4270   36.7440 H     609  INH609      0.2100
     16  N1        42.7550   11.3220   36.2290 N.am  609  INH609     -0.3490
     17  C13       42.7260   11.2480   34.9070 C.2   609  INH609      0.2140
     18  O11       43.0750   10.2440   34.2900 O.2   609  INH609     -0.2740
     19  C14       42.2380   12.4740   34.1570 C.3   609  INH609      0.1170
     20  H21       43.0790   10.5470   36.7720 H     609  INH609      0.1630
     21  O6        40.1060   11.6890   37.0930 O.3   609  INH609     -0.3690
     22  H22       39.2830   11.8980   37.5160 H     609  INH609      0.2120
     23  C12       41.0620   15.2890   39.8790 C.3   609  INH609      0.1980
     24  O10       39.7360   15.0220   40.3140 O.3   609  INH609     -0.3980
     25  H24       39.4350   14.2040   39.9340 H     609  INH609      0.2090
     26  O1        44.7460   16.5330   41.4600 O.3   609  INH609     -0.3460
     27  C15       45.0180   15.6940   42.5480 C.3   609  INH609      0.2920
     28  O15       44.0180   14.6950   42.7360 O.3   609  INH609     -0.3510
     29  C19       42.7060   15.2100   43.0630 C.3   609  INH609      0.1520
     30  C18       42.7700   16.0070   44.3700 C.3   609  INH609      0.1780
     31  C20       41.7600   14.0250   43.1390 C.3   609  INH609      0.0420
     32  C17       43.8210   17.1170   44.2550 C.3   609  INH609      0.1830
     33  C16       45.1740   16.5390   43.8200 C.3   609  INH609      0.2040
     34  O14       43.1080   15.1440   45.4450 O.3   609  INH609     -0.3900
     35  H35       42.3180   14.8850   45.9050 H     609  INH609      0.2100
     36  O13       43.9710   17.7550   45.5140 O.3   609  INH609     -0.3900
     37  H34       43.1570   18.1820   45.7510 H     609  INH609      0.2100
     38  O12       46.0850   17.6070   43.5800 O.3   609  INH609     -0.3880
     39  H33       46.8730   17.2650   43.1750 H     609  INH609      0.2100
     40  C6        46.4750   17.1290   36.1410 C.3   609  INH609      0.1980
     41  O5        46.8470   18.4030   35.6340 O.3   609  INH609     -0.3980
     42  H10       46.9230   18.3580   34.6890 H     609  INH609      0.2090
     43  O2        47.3920   17.6790   40.9790 O.3   609  INH609     -0.3900
     44  H8        48.1370   17.1510   40.7170 H     609  INH609      0.2100
     45  O3        48.0050   16.5020   38.5660 O.3   609  INH609     -0.3900
     46  H9        48.2350   16.2580   39.4540 H     609  INH609      0.2100
@<TRIPOS>BOND
     1    19    17    1
     2    18    17    2
     3    42    41    1
     4    17    16   am
     5    41    40    1
     6    40     5    1
     7    16    20    1
     8    16    10    1
     9    15    14    1
    10    14     9    1
    11    10     9    1
    12    10    11    1
    13    21    22    1
    14    21    11    1
    15     5     6    1
    16     5     4    1
    17     9     8    1
    18    11    12    1
    19     6     1    1
    20    12    13    1
    21     8    13    1
    22     8     7    1
    23    45     4    1
    24    45    46    1
    25     4     3    1
    26     1     7    1
    27     1     2    1
    28    13    23    1
    29    23    24    1
    30    25    24    1
    31     3     2    1
    32     3    43    1
    33     2    26    1
    34    44    43    1
    35    26    27    1
    36    27    28    1
    37    27    33    1
    38    28    29    1
    39    29    31    1
    40    29    30    1
    41    39    38    1
    42    38    33    1
    43    33    32    1
    44    32    30    1
    45    32    36    1
    46    30    34    1
    47    34    35    1
    48    36    37    1
