@<TRIPOS>MOLECULE
./ligand/2afx_lig.pdb
 22 23 0 0 0
SMALL
GASTEIGER

@<TRIPOS>ATOM
      1  C1       -15.9250    2.1880   21.7000 C.ar  329  INH329      0.0244
      2  C2       -17.1600    2.7060   21.4980 C.ar  329  INH329      0.0454
      3  N1       -15.2190    3.1340   22.4080 N.ar  329  INH329     -0.3325
      4  C3       -15.9980    4.1790   22.6340 C.ar  329  INH329      0.0962
      5  N2       -17.1850    3.9410   22.0900 N.ar  329  INH329     -0.2441
      6  C4       -13.9380    2.8800   23.0590 C.3   329  INH329      0.0492
      7  C5       -12.8690    3.8840   22.8220 C.ar  329  INH329     -0.0277
      8  C6       -12.7360    4.5070   21.5830 C.ar  329  INH329     -0.0569
      9  C7       -12.0340    4.2740   23.8620 C.ar  329  INH329     -0.0569
     10  C8       -11.7860    5.5210   21.3840 C.ar  329  INH329     -0.0614
     11  C9       -11.0850    5.2840   23.6760 C.ar  329  INH329     -0.0614
     12  C10      -10.9680    5.9080   22.4270 C.ar  329  INH329     -0.0617
     13  H1       -15.5630    1.2160   21.3680 H     329  INH329      0.0825
     14  H2       -17.9810    2.2290   20.9640 H     329  INH329      0.0845
     15  H3       -15.7140    5.0810   23.1740 H     329  INH329      0.1029
     16  H4       -13.5680    1.9070   22.7040 H     329  INH329      0.0541
     17  H5       -14.1170    2.8310   24.1430 H     329  INH329      0.0541
     18  H6       -13.3750    4.2050   20.7610 H     329  INH329      0.0621
     19  H7       -12.1190    3.7900   24.8280 H     329  INH329      0.0621
     20  H8       -11.6950    5.9980   20.4150 H     329  INH329      0.0618
     21  H9       -10.4420    5.5830   24.4960 H     329  INH329      0.0618
     22  H10      -10.2360    6.6940   22.2800 H     329  INH329      0.0618
@<TRIPOS>BOND
     1     1    13    1
     2     1     3   ar
     3     1     2   ar
     4     2    14    1
     5     2     5   ar
     6     3     4   ar
     7     3     6    1
     8     4     5   ar
     9     4    15    1
    10     6    17    1
    11     6    16    1
    12     6     7    1
    13     7     9   ar
    14     7     8   ar
    15     8    18    1
    16     8    10   ar
    17     9    11   ar
    18     9    19    1
    19    10    20    1
    20    10    12   ar
    21    11    12   ar
    22    11    21    1
    23    12    22    1
