@<TRIPOS>MOLECULE
/tmp/ewbell/vina_2afx_2afx_lig/vina/vina5.pdbqt
 13 14 0 0 0
SMALL
GASTEIGER

@<TRIPOS>ATOM
      1  C4       -14.3300    3.7930   24.0860 C.3   329  INH329      0.1670
      2  N1       -14.9660    3.5270   22.8000 N.pl3 329  INH329     -0.3470
      3  C1       -14.4640    2.6620   21.8560 C.2   329  INH329      0.1090
      4  C2       -15.4520    2.4700   20.9490 C.2   329  INH329      0.1060
      5  N2       -16.5300    3.2070   21.3620 N.pl3 329  INH329     -0.3610
      6  C3       -16.2120    3.8390   22.4840 C.3   329  INH329      0.1820
      7  H2       -17.4300    3.2610   20.8850 H     329  INH329      0.1660
      8  C5       -13.1200    4.6550   24.0550 C.ar  329  INH329     -0.0400
      9  C7       -13.2280    5.9980   23.7120 C.ar  329  INH329      0.0090
     10  C9       -12.0880    6.7980   23.5900 C.ar  329  INH329      0.0010
     11  C10      -10.8210    6.2440   23.8200 C.ar  329  INH329      0.0000
     12  C8       -10.7040    4.9140   24.1710 C.ar  329  INH329      0.0010
     13  C6       -11.8550    4.1210   24.2890 C.ar  329  INH329      0.0090
@<TRIPOS>BOND
     1     7     5    1
     2     4     5    1
     3     4     3    2
     4     5     6    1
     5     3     2    1
     6     6     2    1
     7     2     1    1
     8    10     9   ar
     9    10    11   ar
    10     9     8   ar
    11    11    12   ar
    12     8     1    1
    13     8    13   ar
    14    12    13   ar
