@<TRIPOS>MOLECULE
/tmp/ewbell/vina_2afx_2afx_lig/vina/vina1.pdbqt
 13 14 0 0 0
SMALL
GASTEIGER

@<TRIPOS>ATOM
      1  C4       -13.8850    3.7410   23.1860 C.3   329  INH329      0.1670
      2  N1       -14.9660    3.1020   22.4410 N.pl3 329  INH329     -0.3470
      3  C1       -16.1970    3.6760   22.2260 C.2   329  INH329      0.1090
      4  C2       -16.8090    2.9240   21.2810 C.2   329  INH329      0.1060
      5  N2       -15.9420    1.9230   20.9340 N.pl3 329  INH329     -0.3610
      6  C3       -14.8320    2.0510   21.6500 C.3   329  INH329      0.1820
      7  H2       -16.1190    1.1970   20.2390 H     329  INH329      0.1660
      8  C5       -14.2930    4.6560   24.2830 C.ar  329  INH329     -0.0400
      9  C7       -14.7810    4.1400   25.4770 C.ar  329  INH329      0.0090
     10  C9       -15.2550    4.9900   26.4820 C.ar  329  INH329      0.0010
     11  C10      -15.2330    6.3780   26.2870 C.ar  329  INH329      0.0000
     12  C8       -14.7410    6.9010   25.1070 C.ar  329  INH329      0.0010
     13  C6       -14.2690    6.0380   24.1060 C.ar  329  INH329      0.0090
@<TRIPOS>BOND
     1     7     5    1
     2     5     4    1
     3     5     6    1
     4     4     3    2
     5     6     2    1
     6     3     2    1
     7     2     1    1
     8     1     8    1
     9    13     8   ar
    10    13    12   ar
    11     8     9   ar
    12    12    11   ar
    13     9    10   ar
    14    11    10   ar
