@<TRIPOS>MOLECULE
/tmp/ewbell/vina_2afx_2afx_lig/vina/vina2.pdbqt
 13 14 0 0 0
SMALL
GASTEIGER

@<TRIPOS>ATOM
      1  C4       -13.8500    5.0070   23.4610 C.3   329  INH329      0.1670
      2  N1       -14.2780    4.8850   24.8500 N.pl3 329  INH329     -0.3470
      3  C1       -14.8130    5.9170   25.5860 C.2   329  INH329      0.1090
      4  C2       -15.3350    5.3580   26.7040 C.2   329  INH329      0.1060
      5  N2       -15.1200    4.0080   26.6220 N.pl3 329  INH329     -0.3610
      6  C3       -14.4770    3.7450   25.4920 C.3   329  INH329      0.1820
      7  H2       -15.4070    3.3180   27.3160 H     329  INH329      0.1660
      8  C5       -14.5400    4.1310   22.4790 C.ar  329  INH329     -0.0400
      9  C7       -15.9240    4.1680   22.3640 C.ar  329  INH329      0.0090
     10  C9       -16.5940    3.2850   21.5110 C.ar  329  INH329      0.0010
     11  C10      -15.8630    2.3540   20.7590 C.ar  329  INH329      0.0000
     12  C8       -14.4870    2.3160   20.8600 C.ar  329  INH329      0.0010
     13  C6       -13.8260    3.2070   21.7200 C.ar  329  INH329      0.0090
@<TRIPOS>BOND
     1    11    12   ar
     2    11    10   ar
     3    12    13   ar
     4    10     9   ar
     5    13     8   ar
     6     9     8   ar
     7     8     1    1
     8     1     2    1
     9     2     6    1
    10     2     3    1
    11     6     5    1
    12     3     4    2
    13     5     4    1
    14     5     7    1
