@<TRIPOS>MOLECULE
/tmp/ewbell/vina_2afx_2afx_lig/vina/vina4.pdbqt
 13 14 0 0 0
SMALL
GASTEIGER

@<TRIPOS>ATOM
      1  C4       -14.0500    4.7930   24.3590 C.3   329  INH329      0.1670
      2  N1       -14.3960    6.1990   24.5380 N.pl3 329  INH329     -0.3470
      3  C1       -15.1810    6.6750   25.5640 C.2   329  INH329      0.1090
      4  C2       -15.0430    8.0220   25.5560 C.2   329  INH329      0.1060
      5  N2       -14.1770    8.3360   24.5430 N.pl3 329  INH329     -0.3610
      6  C3       -13.7990    7.2160   23.9410 C.3   329  INH329      0.1820
      7  H2       -13.8710    9.2770   24.2930 H     329  INH329      0.1660
      8  C5       -14.5690    4.1390   23.1300 C.ar  329  INH329     -0.0400
      9  C7       -15.9360    4.0970   22.8860 C.ar  329  INH329      0.0090
     10  C9       -16.4440    3.4050   21.7810 C.ar  329  INH329      0.0010
     11  C10      -15.5650    2.7510   20.9060 C.ar  329  INH329      0.0000
     12  C8       -14.2040    2.7960   21.1340 C.ar  329  INH329      0.0010
     13  C6       -13.7070    3.4920   22.2470 C.ar  329  INH329      0.0090
@<TRIPOS>BOND
     1    11    12   ar
     2    11    10   ar
     3    12    13   ar
     4    10     9   ar
     5    13     8   ar
     6     9     8   ar
     7     8     1    1
     8     6     2    1
     9     6     5    1
    10     7     5    1
    11     1     2    1
    12     2     3    1
    13     5     4    1
    14     4     3    2
