@<TRIPOS>MOLECULE
/tmp/ewbell/vina_2afx_2afx_lig/vina/vina3.pdbqt
 13 14 0 0 0
SMALL
GASTEIGER

@<TRIPOS>ATOM
      1  C4       -13.0870    4.8440   23.6390 C.3   329  INH329      0.1670
      2  N1       -13.8510    4.5370   24.8440 N.pl3 329  INH329     -0.3470
      3  C1       -14.6460    5.4460   25.5040 C.2   329  INH329      0.1090
      4  C2       -15.3940    4.7330   26.3800 C.2   329  INH329      0.1060
      5  N2       -15.0510    3.4150   26.2290 N.pl3 329  INH329     -0.3610
      6  C3       -14.1140    3.3220   25.2940 C.3   329  INH329      0.1820
      7  H2       -15.4490    2.6340   26.7500 H     329  INH329      0.1660
      8  C5       -11.7060    5.3510   23.8480 C.ar  329  INH329     -0.0400
      9  C7       -10.7020    4.4880   24.2690 C.ar  329  INH329      0.0090
     10  C9        -9.4200    4.9690   24.5580 C.ar  329  INH329      0.0010
     11  C10       -9.1420    6.3360   24.4170 C.ar  329  INH329      0.0000
     12  C8       -10.1310    7.2000   23.9900 C.ar  329  INH329      0.0010
     13  C6       -11.4120    6.7060   23.7050 C.ar  329  INH329      0.0090
@<TRIPOS>BOND
     1     1     8    1
     2     1     2    1
     3    13     8   ar
     4    13    12   ar
     5     8     9   ar
     6    12    11   ar
     7     9    10   ar
     8    11    10   ar
     9     2     6    1
    10     2     3    1
    11     6     5    1
    12     3     4    2
    13     5     4    1
    14     5     7    1
