@<TRIPOS>MOLECULE
./ligand/2pov_lig.pdb
 23 23 0 0 0
SMALL
GASTEIGER

@<TRIPOS>ATOM
      1  C1        -5.0010    1.8880   14.4280 C.ar  261  INH261     -0.0057
      2  C2        -4.6880    2.8680   13.4690 C.ar  261  INH261      0.1275
      3  C3        -4.9860    4.2330   13.6890 C.ar  261  INH261      0.0527
      4  C4        -5.6030    4.5960   14.8950 C.ar  261  INH261     -0.0189
      5  C5        -5.9280    3.6290   15.8700 C.ar  261  INH261      0.0692
      6  C6        -5.6210    2.2630   15.6310 C.ar  261  INH261      0.1268
      7  S1        -3.9260    2.3540   11.9650 S.O2  261  INH261      0.0578
      8  N1        -2.4210    2.8280   11.9870 N.3   261  INH261     -0.2035
      9  O1        -3.9220    0.9300   11.9350 O.2   261  INH261     -0.1532
     10  O2        -4.6000    3.0620   10.9260 O.2   261  INH261     -0.1532
     11  S2        -5.9990    0.9650   16.7970 S.O2  261  INH261      0.0738
     12  N2        -5.4320   -0.3990   16.2560 N.3   261  INH261     -0.1052
     13  O3        -5.3270    1.2620   18.0240 O.2   261  INH261     -0.1518
     14  O4        -7.4270    0.8620   16.8030 O.2   261  INH261     -0.1518
     15  N3        -4.6950    5.2290   12.7640 N.pl3 261  INH261     -0.3564
     16 Cl1        -6.6660    4.1030   17.3040 Cl    261  INH261     -0.0815
     17  H1        -4.7650    0.8470   14.2390 H     261  INH261      0.0658
     18  H2        -5.8340    5.6380   15.0820 H     261  INH261      0.0652
     19  H3        -1.8220    2.6270   11.2120 H     261  INH261      0.1442
     20  H4        -2.0660    3.3300   12.7760 H     261  INH261      0.1442
     21  H5        -5.5550   -1.2370   16.7870 H     261  INH261      0.1694
     22  H6        -4.2420    4.9860   11.8710 H     261  INH261      0.1424
     23  H7        -4.9320    6.2100   12.9710 H     261  INH261      0.1424
@<TRIPOS>BOND
     1     1    17    1
     2     1     6   ar
     3     1     2   ar
     4     2     7    1
     5     2     3   ar
     6     3    15    1
     7     3     4   ar
     8     4    18    1
     9     4     5   ar
    10     5    16    1
    11     5     6   ar
    12     6    11    1
    13     7    10    2
    14     7     9    2
    15     7     8    1
    16     8    20    1
    17     8    19    1
    18    11    14    2
    19    11    13    2
    20    11    12    1
    21    12    21    1
    22    15    23    1
    23    15    22    1
