@<TRIPOS>MOLECULE
/tmp/ewbell/vina_2pov_2pov_lig/vina/vina1.pdbqt
 22 22 0 0 0
SMALL
GASTEIGER

@<TRIPOS>ATOM
      1  C1        -5.0490    2.0480   14.5580 C.ar  261  INH261      0.0540
      2  C2        -4.7330    2.9940   13.5670 C.ar  261  INH261      0.1060
      3  C3        -5.0360    4.3650   13.7370 C.ar  261  INH261      0.0510
      4  C4        -5.6610    4.7690   14.9260 C.ar  261  INH261      0.0560
      5  C5        -5.9890    3.8360   15.9320 C.ar  261  INH261      0.0590
      6  C6        -5.6770    2.4630   15.7430 C.ar  261  INH261      0.0970
      7 Cl1        -6.7370    4.3580   17.3440 Cl    261  INH261     -0.0830
      8  S1        -3.9610    2.4300   12.0860 S.O2  261  INH261      0.2590
      9  O2        -2.6110    2.8880   12.1530 O.2   261  INH261     -0.2010
     10  O1        -4.7680    2.8320   10.9850 O.2   261  INH261     -0.2010
     11  N1        -3.9460    0.8520   12.1080 N.3   261  INH261     -0.3240
     12  H4        -4.6710    0.3520   12.5820 H     261  INH261      0.1690
     13  H3        -3.2130    0.3520   11.6470 H     261  INH261      0.1690
     14  N3        -4.7420    5.3290   12.7790 N.pl3 261  INH261     -0.3980
     15  H7        -3.7810    5.4210   12.4180 H     261  INH261      0.1560
     16  H6        -5.4850    5.9520   12.4300 H     261  INH261      0.1560
     17  S2        -6.0590    1.2060   16.9520 S.O2  261  INH261      0.2410
     18  O4        -7.4770    1.0220   16.8770 O.2   261  INH261     -0.2060
     19  O3        -5.4820    1.6020   18.2000 O.2   261  INH261     -0.2060
     20  N2        -5.3860   -0.1490   16.5210 N.3   261  INH261     -0.2250
     21  H5        -4.7240   -0.1630   15.7730 H     261  INH261      0.1360
     22  H         -6.1410   -0.7820   16.2570 H     261  INH261      0.1360
@<TRIPOS>BOND
     1    10     8    2
     2    13    11    1
     3     8    11    1
     4     8     9    2
     5     8     2    1
     6    11    12    1
     7    15    14    1
     8    16    14    1
     9    14     3    1
    10     2     3   ar
    11     2     1   ar
    12     3     4   ar
    13     1     6   ar
    14     4     5   ar
    15     6     5   ar
    16     6    17    1
    17    21    20    1
    18     5     7    1
    19    22    20    1
    20    20    17    1
    21    18    17    2
    22    17    19    2
