@<TRIPOS>MOLECULE
/tmp/ewbell/vina_2pov_2pov_lig/vina/vina2.pdbqt
 22 22 0 0 0
SMALL
GASTEIGER

@<TRIPOS>ATOM
      1  C1        -5.0080    2.0400   14.5370 C.ar  261  INH261      0.0540
      2  C2        -5.6220    2.3930   15.7520 C.ar  261  INH261      0.1060
      3  C3        -5.9420    3.7380   16.0500 C.ar  261  INH261      0.0510
      4  C4        -5.6350    4.7240   15.1010 C.ar  261  INH261      0.0560
      5  C5        -5.0170    4.3920   13.8760 C.ar  261  INH261      0.0590
      6  C6        -4.7040    3.0350   13.5950 C.ar  261  INH261      0.0970
      7 Cl1        -4.6660    5.6010   12.7620 Cl    261  INH261     -0.0830
      8  S1        -5.9730    1.1160   16.9150 S.O2  261  INH261      0.2590
      9  O2        -5.5420    1.6130   18.1810 O.2   261  INH261     -0.2010
     10  O1        -5.4080   -0.0960   16.4260 O.2   261  INH261     -0.2010
     11  N1        -7.5370    0.9160   16.9720 N.3   261  INH261     -0.3240
     12  H4        -7.9250    0.1490   17.4850 H     261  INH261      0.1690
     13  H3        -8.1410    1.5560   16.4970 H     261  INH261      0.1690
     14  N3        -6.5460    4.1260   17.2410 N.pl3 261  INH261     -0.3980
     15  H7        -6.7930    5.1140   17.3950 H     261  INH261      0.1560
     16  H6        -6.7450    3.4250   17.9690 H     261  INH261      0.1560
     17  S2        -3.9150    2.5150   12.0800 S.O2  261  INH261      0.2410
     18  O4        -2.5700    3.0000   12.1640 O.2   261  INH261     -0.2060
     19  O3        -4.7320    2.9420   10.9860 O.2   261  INH261     -0.2060
     20  N2        -3.8460    0.9440   12.0440 N.3   261  INH261     -0.2250
     21  H5        -4.3130    0.4400   11.3190 H     261  INH261      0.1360
     22  H         -4.2290    0.6120   12.9280 H     261  INH261      0.1360
@<TRIPOS>BOND
     1    19    17    2
     2    21    20    1
     3    20    17    1
     4    20    22    1
     5    17    18    2
     6    17     6    1
     7     7     5    1
     8     6     5   ar
     9     6     1   ar
    10     5     4   ar
    11     1     2   ar
    12     4     3   ar
    13     2     3   ar
    14     2     8    1
    15     3    14    1
    16    10     8    2
    17    13    11    1
    18     8    11    1
    19     8     9    2
    20    11    12    1
    21    14    15    1
    22    14    16    1
