@<TRIPOS>MOLECULE
/tmp/ewbell/vina_2pov_2pov_lig/vina/vina4.pdbqt
 22 22 0 0 0
SMALL
GASTEIGER

@<TRIPOS>ATOM
      1  C1         6.1150   -6.3970    4.8400 C.ar  261  INH261      0.0540
      2  C2         6.2100   -5.4470    3.8060 C.ar  261  INH261      0.1060
      3  C3         5.4470   -4.2570    3.8300 C.ar  261  INH261      0.0510
      4  C4         4.5870   -4.0360    4.9160 C.ar  261  INH261      0.0560
      5  C5         4.4750   -4.9760    5.9620 C.ar  261  INH261      0.0590
      6  C6         5.2490   -6.1660    5.9210 C.ar  261  INH261      0.0970
      7 Cl1         3.4340   -4.6760    7.2480 Cl    261  INH261     -0.0830
      8  S1         7.2960   -5.7830    2.4590 S.O2  261  INH261      0.2590
      9  O2         8.3970   -4.8890    2.6150 O.2   261  INH261     -0.2010
     10  O1         6.5370   -5.7320    1.2560 O.2   261  INH261     -0.2010
     11  N1         7.8340   -7.2580    2.6140 N.3   261  INH261     -0.3240
     12  H4         7.6920   -7.7550    3.4700 H     261  INH261      0.1690
     13  H3         8.3170   -7.6970    1.8560 H     261  INH261      0.1690
     14  N3         5.5110   -3.2980    2.8260 N.pl3 261  INH261     -0.3980
     15  H7         5.0830   -2.3720    2.9690 H     261  INH261      0.1560
     16  H6         5.9870   -3.5130    1.9380 H     261  INH261      0.1560
     17  S2         5.1720   -7.4190    7.1910 S.O2  261  INH261      0.2410
     18  O4         5.3440   -8.6650    6.5070 O.2   261  INH261     -0.2060
     19  O3         3.9770   -7.2100    7.9470 O.2   261  INH261     -0.2060
     20  N2         6.3940   -7.2450    8.1660 N.3   261  INH261     -0.2250
     21  H5         7.0890   -7.9610    8.2290 H     261  INH261      0.1360
     22  H          6.0090   -7.1250    9.1020 H     261  INH261      0.1360
@<TRIPOS>BOND
     1    10     8    2
     2    13    11    1
     3    16    14    1
     4     8    11    1
     5     8     9    2
     6     8     2    1
     7    11    12    1
     8    14    15    1
     9    14     3    1
    10     2     3   ar
    11     2     1   ar
    12     3     4   ar
    13     1     6   ar
    14     4     5   ar
    15     6     5   ar
    16     6    17    1
    17     5     7    1
    18    18    17    2
    19    17    19    2
    20    17    20    1
    21    20    21    1
    22    20    22    1
