@<TRIPOS>MOLECULE
/tmp/ewbell/vina_2pov_2pov_lig/vina/vina3.pdbqt
 22 22 0 0 0
SMALL
GASTEIGER

@<TRIPOS>ATOM
      1  C1        -4.2510    2.9170   13.7720 C.ar  261  INH261      0.0540
      2  C2        -4.4560    4.0380   12.9470 C.ar  261  INH261      0.1060
      3  C3        -5.2720    5.1160   13.3620 C.ar  261  INH261      0.0510
      4  C4        -5.8770    5.0480   14.6260 C.ar  261  INH261      0.0560
      5  C5        -5.6870    3.9320   15.4680 C.ar  261  INH261      0.0590
      6  C6        -4.8640    2.8590   15.0340 C.ar  261  INH261      0.0970
      7 Cl1        -6.4280    3.8870   16.9760 Cl    261  INH261     -0.0830
      8  S1        -3.6830    4.0640   11.3630 S.O2  261  INH261      0.2590
      9  O2        -2.6570    5.0520   11.4480 O.2   261  INH261     -0.2010
     10  O1        -4.6990    4.2130   10.3770 O.2   261  INH261     -0.2010
     11  N1        -2.9980    2.6630   11.1250 N.3   261  INH261     -0.3240
     12  H4        -2.2620    2.3560   11.7290 H     261  INH261      0.1690
     13  H3        -3.3000    2.0800   10.3700 H     261  INH261      0.1690
     14  N3        -5.5000    6.2380   12.5740 N.pl3 261  INH261     -0.3980
     15  H7        -6.1980    6.9390   12.8650 H     261  INH261      0.1560
     16  H6        -4.9720    6.3690   11.6990 H     261  INH261      0.1560
     17  S2        -4.5690    1.4010   16.0220 S.O2  261  INH261      0.2410
     18  O4        -3.2100    1.5080   16.4620 O.2   261  INH261     -0.2060
     19  O3        -4.9540    0.2590   15.2520 O.2   261  INH261     -0.2060
     20  N2        -5.4820    1.4480   17.3020 N.3   261  INH261     -0.2250
     21  H5        -6.4760    1.4870   17.2050 H     261  INH261      0.1360
     22  H         -5.2050    2.2740   17.8310 H     261  INH261      0.1360
@<TRIPOS>BOND
     1    13    11    1
     2    10     8    2
     3    11     8    1
     4    11    12    1
     5     8     9    2
     6     8     2    1
     7    16    14    1
     8    14    15    1
     9    14     3    1
    10     2     3   ar
    11     2     1   ar
    12     3     4   ar
    13     1     6   ar
    14     4     5   ar
    15     6     5   ar
    16     6    17    1
    17    19    17    2
    18     5     7    1
    19    17    18    2
    20    17    20    1
    21    21    20    1
    22    20    22    1
