@<TRIPOS>MOLECULE
/tmp/ewbell/vina_2pov_2pov_lig/vina/vina5.pdbqt
 22 22 0 0 0
SMALL
GASTEIGER

@<TRIPOS>ATOM
      1  C1         6.5510   -4.8170    5.6500 C.ar  261  INH261      0.0540
      2  C2         5.2990   -4.2930    6.0200 C.ar  261  INH261      0.1060
      3  C3         4.3610   -5.0690    6.7390 C.ar  261  INH261      0.0510
      4  C4         4.7060   -6.3840    7.0830 C.ar  261  INH261      0.0560
      5  C5         5.9550   -6.9310    6.7190 C.ar  261  INH261      0.0590
      6  C6         6.8840   -6.1360    5.9970 C.ar  261  INH261      0.0970
      7 Cl1         6.3330   -8.5110    7.1510 Cl    261  INH261     -0.0830
      8  S1         4.9120   -2.6380    5.5500 S.O2  261  INH261      0.2590
      9  O2         6.1580   -2.0250    5.2240 O.2   261  INH261     -0.2010
     10  O1         4.1120   -2.0620    6.5760 O.2   261  INH261     -0.2010
     11  N1         4.0330   -2.6900    4.2410 N.3   261  INH261     -0.3240
     12  H4         4.4720   -2.6690    3.3420 H     261  INH261      0.1690
     13  H3         3.0370   -2.7450    4.3090 H     261  INH261      0.1690
     14  N3         3.1140   -4.5870    7.1200 N.pl3 261  INH261     -0.3980
     15  H7         2.2580   -5.0230    6.7500 H     261  INH261      0.1560
     16  H6         3.0460   -3.7920    7.7730 H     261  INH261      0.1560
     17  S2         8.4850   -6.7380    5.4840 S.O2  261  INH261      0.2410
     18  O4         8.2160   -7.7550    4.5130 O.2   261  INH261     -0.2060
     19  O3         9.2240   -7.0870    6.6580 O.2   261  INH261     -0.2060
     20  N2         9.2630   -5.5840    4.7520 N.3   261  INH261     -0.2250
     21  H5         8.7920   -5.0070    4.0870 H     261  INH261      0.1360
     22  H         10.0450   -6.0200    4.2630 H     261  INH261      0.1360
@<TRIPOS>BOND
     1    12    11    1
     2    21    20    1
     3    11    13    1
     4    11     8    1
     5    22    20    1
     6    18    17    2
     7    20    17    1
     8     9     8    2
     9    17     6    1
    10    17    19    2
    11     8     2    1
    12     8    10    2
    13     1     6   ar
    14     1     2   ar
    15     6     5   ar
    16     2     3   ar
    17     5     4   ar
    18     5     7    1
    19     3     4   ar
    20     3    14    1
    21    15    14    1
    22    14    16    1
