@<TRIPOS>MOLECULE
./ligand/2fw6_lig.pdb
 19 18 0 0 0
SMALL
GASTEIGER

@<TRIPOS>ATOM
      1  C1        34.6890   65.5750 -149.1450 C.2   1293  INH1293     0.3593
      2  O1        33.9320   66.4800 -149.5610 O.co2 1293  INH1293    -0.2463
      3  O2        34.7490   65.2390 -147.9440 O.co2 1293  INH1293    -0.2463
      4  C2        35.5570   64.8310 -150.1440 C.3   1293  INH1293     0.0890
      5  C3        36.1100   65.7420 -151.2450 C.3   1293  INH1293     0.1865
      6  O3        35.0110   66.3270 -151.9520 O.3   1293  INH1293    -0.3764
      7  C4        36.9690   64.9060 -152.2020 C.3   1293  INH1293     0.0846
      8  C5        36.1370   64.0340 -153.1270 C.2   1293  INH1293     0.3080
      9  O4        36.1120   64.3180 -154.3430 O.2   1293  INH1293    -0.2509
     10  O5        35.5020   63.0730 -152.6420 O.3   1293  INH1293    -0.4805
     11  C6        36.9590   66.8610 -150.6430 C.2   1293  INH1293     0.3880
     12  O6        37.9510   66.5270 -149.9660 O.co2 1293  INH1293    -0.2431
     13  O7        36.6350   68.0530 -150.8640 O.co2 1293  INH1293    -0.2431
     14  H1        34.9540   64.0400 -150.6130 H     1293  INH1293     0.0413
     15  H2        36.4020   64.3770 -149.6060 H     1293  INH1293     0.0413
     16  H3        34.4030   66.7110 -151.3310 H     1293  INH1293     0.2109
     17  H4        37.6290   64.2580 -151.6070 H     1293  INH1293     0.0412
     18  H5        37.5780   65.5870 -152.8140 H     1293  INH1293     0.0412
     19  H6        35.0260   62.6270 -153.3330 H     1293  INH1293     0.2951
@<TRIPOS>BOND
     1     9     8    2
     2    19    10    1
     3     8    10    1
     4     8     7    1
     5    18     7    1
     6     7    17    1
     7     7     5    1
     8     6    16    1
     9     6     5    1
    10     5    11    1
    11     5     4    1
    12    13    11   ar
    13    11    12   ar
    14    14     4    1
    15     4    15    1
    16     4     1    1
    17     2     1   ar
    18     1     3   ar
