@<TRIPOS>MOLECULE
/tmp/ewbell/vina_2fw6_2fw6_lig/vina/vina1.pdbqt
 17 16 0 0 0
SMALL
GASTEIGER

@<TRIPOS>ATOM
      1  C3        36.0420   65.1120 -151.0260 C.3   1293  INH1293     0.1610
      2  C2        35.9240   64.7240 -152.5040 C.3   1293  INH1293     0.1590
      3  C1        36.9610   63.6980 -152.9280 C.2   1293  INH1293     0.1420
      4  O1        38.1600   64.0490 -153.0000 O.2   1293  INH1293    -0.6500
      5  O2        36.5770   62.5360 -153.1700 O.3   1293  INH1293    -0.7760
      6  H         36.9700   61.8110 -152.7260 H     1293  INH1293     0.1670
      7  C4        34.6770   65.6040 -150.5270 C.3   1293  INH1293     0.1590
      8  C5        34.7060   66.0360 -149.0710 C.2   1293  INH1293     0.1420
      9  O4        34.5790   65.1590 -148.1910 O.2   1293  INH1293    -0.6500
     10  O5        34.8470   67.2490 -148.8030 O.3   1293  INH1293    -0.7760
     11  H6        34.1300   67.5370 -148.2490 H     1293  INH1293     0.1670
     12  O3        36.4530   63.9610 -150.2810 O.3   1293  INH1293    -0.3780
     13  H3        37.0030   64.2330 -149.5550 H     1293  INH1293     0.2110
     14  C6        37.0820   66.2160 -150.8400 C.2   1293  INH1293     0.1760
     15  O7        36.8260   67.3670 -151.2670 O.2   1293  INH1293    -0.6480
     16  O6        38.1500   65.9070 -150.2770 O.3   1293  INH1293    -0.7740
     17  H         38.7380   66.5770 -149.9870 H     1293  INH1293     0.1670
@<TRIPOS>BOND
     1     5     3    1
     2     5     6    1
     3     4     3    2
     4     3     2    1
     5     2     1    1
     6    15    14    2
     7     1    14    1
     8     1     7    1
     9     1    12    1
    10    14    16    1
    11     7     8    1
    12    12    13    1
    13    16    17    1
    14     8    10    1
    15     8     9    2
    16    10    11    1
