@<TRIPOS>MOLECULE
/tmp/ewbell/vina_2fw6_2fw6_lig/vina/vina3.pdbqt
 17 16 0 0 0
SMALL
GASTEIGER

@<TRIPOS>ATOM
      1  C3        36.0380   65.2950 -150.1310 C.3   1293  INH1293     0.1610
      2  C2        37.2820   66.1320 -150.4470 C.3   1293  INH1293     0.1590
      3  C1        38.5740   65.3500 -150.2850 C.2   1293  INH1293     0.1420
      4  O1        39.1830   64.9740 -151.3110 O.2   1293  INH1293    -0.6500
      5  O2        38.9910   65.1310 -149.1290 O.3   1293  INH1293    -0.7760
      6  H         39.7720   65.5490 -148.8250 H     1293  INH1293     0.1670
      7  C4        35.2130   65.1210 -151.4130 C.3   1293  INH1293     0.1590
      8  C5        35.9800   64.4070 -152.5120 C.2   1293  INH1293     0.1420
      9  O4        36.0070   64.9260 -153.6480 O.2   1293  INH1293    -0.6500
     10  O5        36.5490   63.3260 -152.2480 O.3   1293  INH1293    -0.7760
     11  H6        35.8960   62.6650 -152.0430 H     1293  INH1293     0.1670
     12  O3        36.4570   64.0180 -149.6380 O.3   1293  INH1293    -0.3780
     13  H3        37.1900   63.7030 -150.1540 H     1293  INH1293     0.2110
     14  C6        35.1850   65.9780 -149.0640 C.2   1293  INH1293     0.1760
     15  O7        34.6850   65.2800 -148.1490 O.2   1293  INH1293    -0.6480
     16  O6        35.0160   67.2090 -149.1670 O.3   1293  INH1293    -0.7740
     17  H         34.1780   67.5850 -148.9790 H     1293  INH1293     0.1670
@<TRIPOS>BOND
     1     9     8    2
     2     8    10    1
     3     8     7    1
     4    10    11    1
     5     7     1    1
     6     4     3    2
     7     2     3    1
     8     2     1    1
     9     3     5    1
    10    13    12    1
    11     1    12    1
    12     1    14    1
    13    16    14    1
    14    16    17    1
    15     5     6    1
    16    14    15    2
