@<TRIPOS>MOLECULE
/tmp/ewbell/vina_2fw6_2fw6_lig/vina/vina5.pdbqt
 17 16 0 0 0
SMALL
GASTEIGER

@<TRIPOS>ATOM
      1  C3        35.9470   65.3970 -151.3120 C.3   1293  INH1293     0.1610
      2  C2        37.4140   65.5630 -150.9000 C.3   1293  INH1293     0.1590
      3  C1        38.3460   65.7120 -152.0900 C.2   1293  INH1293     0.1420
      4  O1        39.2890   64.9010 -152.2220 O.2   1293  INH1293    -0.6500
      5  O2        38.1210   66.6310 -152.9050 O.3   1293  INH1293    -0.7760
      6  H         38.8340   67.1130 -153.2750 H     1293  INH1293     0.1670
      7  C4        35.1380   64.9190 -150.1000 C.3   1293  INH1293     0.1590
      8  C5        35.2460   65.8630 -148.9140 C.2   1293  INH1293     0.1420
      9  O4        34.8980   67.0520 -149.0710 O.2   1293  INH1293    -0.6500
     10  O5        35.6840   65.4230 -147.8290 O.3   1293  INH1293    -0.7760
     11  H6        35.0180   64.8870 -147.4120 H     1293  INH1293     0.1670
     12  O3        35.4530   66.6610 -151.7680 O.3   1293  INH1293    -0.3780
     13  H3        35.9850   66.9670 -152.4930 H     1293  INH1293     0.2110
     14  C6        35.8170   64.3800 -152.4450 C.2   1293  INH1293     0.1760
     15  O7        35.7400   64.7960 -153.6260 O.2   1293  INH1293    -0.6480
     16  O6        35.7790   63.1740 -152.1310 O.3   1293  INH1293    -0.7740
     17  H         35.4640   62.5400 -152.7440 H     1293  INH1293     0.1670
@<TRIPOS>BOND
     1    15    14    2
     2     6     5    1
     3     5     3    1
     4    17    16    1
     5    13    12    1
     6    14    16    1
     7    14     1    1
     8     4     3    2
     9     3     2    1
    10    12     1    1
    11     1     2    1
    12     1     7    1
    13     7     8    1
    14     9     8    2
    15     8    10    1
    16    10    11    1
