@<TRIPOS>MOLECULE
/tmp/ewbell/vina_2fw6_2fw6_lig/vina/vina4.pdbqt
 17 16 0 0 0
SMALL
GASTEIGER

@<TRIPOS>ATOM
      1  C3        35.7440   65.2140 -150.8990 C.3   1293  INH1293     0.1610
      2  C2        34.6440   65.2270 -149.8330 C.3   1293  INH1293     0.1590
      3  C1        34.8680   66.2860 -148.7680 C.2   1293  INH1293     0.1420
      4  O1        34.9190   67.4870 -149.1150 O.2   1293  INH1293    -0.6500
      5  O2        34.9730   65.9170 -147.5810 O.3   1293  INH1293    -0.7760
      6  H         34.9530   66.5500 -146.8900 H     1293  INH1293     0.1670
      7  C4        35.6810   63.8880 -151.6680 C.3   1293  INH1293     0.1590
      8  C5        36.5220   63.9030 -152.9330 C.2   1293  INH1293     0.1420
      9  O4        36.0370   64.4250 -153.9590 O.2   1293  INH1293    -0.6500
     10  O5        37.6610   63.3890 -152.9080 O.3   1293  INH1293    -0.7760
     11  H6        37.9670   63.2530 -153.7980 H     1293  INH1293     0.1670
     12  O3        35.5310   66.3120 -151.7930 O.3   1293  INH1293    -0.3780
     13  H3        35.5660   66.0020 -152.6900 H     1293  INH1293     0.2110
     14  C6        37.1210   65.3640 -150.2540 C.2   1293  INH1293     0.1760
     15  O7        37.9560   66.1390 -150.7820 O.2   1293  INH1293    -0.6480
     16  O6        37.3520   64.6900 -149.2320 O.3   1293  INH1293    -0.7740
     17  H         36.9560   63.8480 -149.1270 H     1293  INH1293     0.1670
@<TRIPOS>BOND
     1     9     8    2
     2    11    10    1
     3     8    10    1
     4     8     7    1
     5    13    12    1
     6    12     1    1
     7     7     1    1
     8     1    14    1
     9     1     2    1
    10    15    14    2
    11    14    16    1
    12     2     3    1
    13    16    17    1
    14     4     3    2
    15     3     5    1
    16     5     6    1
