@<TRIPOS>MOLECULE
/tmp/ewbell/vina_2fw6_2fw6_lig/vina/vina2.pdbqt
 17 16 0 0 0
SMALL
GASTEIGER

@<TRIPOS>ATOM
      1  C3        36.0880   64.8870 -150.8930 C.3   1293  INH1293     0.1610
      2  C2        34.7660   65.5520 -150.4950 C.3   1293  INH1293     0.1590
      3  C1        34.7680   66.0560 -149.0630 C.2   1293  INH1293     0.1420
      4  O1        34.6620   65.2260 -148.1330 O.2   1293  INH1293    -0.6500
      5  O2        34.8950   67.2820 -148.8670 O.3   1293  INH1293    -0.7760
      6  H         35.7490   67.6540 -148.7680 H     1293  INH1293     0.1670
      7  C4        37.2170   65.9220 -150.7990 C.3   1293  INH1293     0.1590
      8  C5        38.5450   65.3060 -150.3960 C.2   1293  INH1293     0.1420
      9  O4        39.3760   65.0500 -151.2930 O.2   1293  INH1293    -0.6500
     10  O5        38.7590   65.0680 -149.1870 O.3   1293  INH1293    -0.7760
     11  H6        38.5900   65.8520 -148.6750 H     1293  INH1293     0.1670
     12  O3        36.3420   63.7990 -149.9980 O.3   1293  INH1293    -0.3780
     13  H3        35.5480   63.5910 -149.5190 H     1293  INH1293     0.2110
     14  C6        36.0110   64.3440 -152.3190 C.2   1293  INH1293     0.1760
     15  O7        35.9720   63.1020 -152.4930 O.2   1293  INH1293    -0.6480
     16  O6        36.0050   65.1740 -153.2490 O.3   1293  INH1293    -0.7740
     17  H         35.6400   64.9440 -154.0800 H     1293  INH1293     0.1670
@<TRIPOS>BOND
     1    17    16    1
     2    16    14    1
     3    15    14    2
     4    14     1    1
     5     9     8    2
     6     1     7    1
     7     1     2    1
     8     1    12    1
     9     7     8    1
    10     2     3    1
    11     8    10    1
    12    12    13    1
    13    10    11    1
    14     3     5    1
    15     3     4    2
    16     5     6    1
