@<TRIPOS>MOLECULE
./ligand/1sr7_lig.pdb
 67 71 0 0 0
SMALL
GASTEIGER

@<TRIPOS>ATOM
      1  O1        -5.1290  -11.2270   30.4090 O.2   505  INH505     -0.2927
      2  C1        -4.6810  -10.3470   29.7000 C.2   505  INH505      0.1561
      3  C2        -5.6140   -9.3250   29.1610 C.3   505  INH505      0.0107
      4  C3        -3.2830  -10.3920   29.2260 C.2   505  INH505     -0.0194
      5  C4        -2.7470   -9.5110   28.2950 C.2   505  INH505     -0.0586
      6  C5        -1.2690   -9.6320   27.8690 C.3   505  INH505     -0.0305
      7  C6        -3.5700   -8.3370   27.7820 C.3   505  INH505      0.0114
      8  C7        -5.0320   -8.3430   28.2080 C.3   505  INH505     -0.0352
      9  C8        -2.9750   -7.0520   28.3980 C.3   505  INH505     -0.0541
     10  C9        -3.4520   -8.4040   26.2290 C.3   505  INH505      0.0830
     11 Cl1        -4.1590  -10.0120   25.6640 Cl    505  INH505     -0.1143
     12  C10       -4.3330   -7.3810   25.4680 C.3   505  INH505      0.0759
     13  O2        -4.3130   -6.0400   25.8700 O.3   505  INH505     -0.3900
     14  C11       -1.9720   -8.3700   25.7530 C.3   505  INH505     -0.0149
     15  C12       -1.2470   -9.5830   26.3190 C.3   505  INH505     -0.0445
     16  C13       -1.9260   -8.3100   24.2330 C.3   505  INH505     -0.0266
     17  C14       -0.6100   -8.4170   23.4000 C.3   505  INH505     -0.0426
     18  C15       -1.0360   -8.0810   22.0220 C.3   505  INH505      0.0041
     19  C16       -0.3630   -9.0410   21.0370 C.3   505  INH505     -0.0583
     20  C17       -2.8540   -7.3330   23.4930 C.3   505  INH505      0.0206
     21  C18       -4.3280   -7.4860   23.9950 C.3   505  INH505     -0.0154
     22  C19       -2.3760   -5.8920   23.8480 C.3   505  INH505     -0.0551
     23  C20       -2.5090   -7.6580   22.0240 C.3   505  INH505      0.1803
     24  C21       -2.9930   -6.6500   21.1020 C.2   505  INH505      0.1918
     25  O3        -2.1380   -6.0030   20.4660 O.2   505  INH505     -0.2919
     26  C22       -4.4140   -6.3560   21.0480 C.3   505  INH505      0.0849
     27 Cl2        -4.7630   -5.4580   19.6100 Cl    505  INH505     -0.1172
     28  O4        -3.2470   -8.9290   21.8580 O.3   505  INH505     -0.4439
     29  C23       -3.4640   -9.3390   20.5610 C.2   505  INH505      0.3758
     30  O5        -3.2350   -8.6950   19.5440 O.2   505  INH505     -0.2414
     31  C24       -3.8600  -10.7480   20.6120 C.ar  505  INH505      0.2112
     32  C25       -3.9550  -11.4150   21.7380 C.ar  505  INH505     -0.0093
     33  C26       -4.3420  -12.7320   21.4170 C.ar  505  INH505     -0.0231
     34  C27       -4.4070  -12.7950   20.0210 C.ar  505  INH505      0.0929
     35  O6        -4.1130  -11.5510   19.4790 O.2   505  INH505     -0.4564
     36  H1        -6.0250   -8.7630   30.0130 H     505  INH505      0.0345
     37  H2        -6.4280   -9.8530   28.6430 H     505  INH505      0.0345
     38  H3        -2.6310  -11.1640   29.6320 H     505  INH505      0.0652
     39  H4        -0.8490  -10.5850   28.2240 H     505  INH505      0.0310
     40  H5        -0.6850   -8.7970   28.2830 H     505  INH505      0.0310
     41  H6        -5.2190   -7.3520   28.6490 H     505  INH505      0.0278
     42  H7        -5.6130   -8.4470   27.2800 H     505  INH505      0.0278
     43  H8        -3.0960   -7.0790   29.4910 H     505  INH505      0.0239
     44  H9        -3.5000   -6.1740   27.9930 H     505  INH505      0.0239
     45  H10       -1.9060   -6.9870   28.1490 H     505  INH505      0.0239
     46  H11       -5.3470   -7.7050   25.7440 H     505  INH505      0.0611
     47  H12       -4.8970   -5.5350   25.3170 H     505  INH505      0.2099
     48  H13       -1.4900   -7.4630   26.1470 H     505  INH505      0.0322
     49  H14       -1.7300  -10.4920   25.9320 H     505  INH505      0.0272
     50  H15       -0.2000   -9.5540   25.9840 H     505  INH505      0.0272
     51  H16       -2.3940   -9.2810   24.0120 H     505  INH505      0.0311
     52  H17       -0.1990   -9.4360   23.4450 H     505  INH505      0.0272
     53  H18        0.1430   -7.7020   23.7630 H     505  INH505      0.0272
     54  H19       -0.5320   -7.1310   21.7890 H     505  INH505      0.0341
     55  H20        0.7010   -9.1440   21.2950 H     505  INH505      0.0234
     56  H21       -0.4560   -8.6430   20.0160 H     505  INH505      0.0234
     57  H22       -0.8510  -10.0250   21.0930 H     505  INH505      0.0234
     58  H23       -4.9520   -6.6890   23.5640 H     505  INH505      0.0297
     59  H24       -4.7240   -8.4660   23.6910 H     505  INH505      0.0297
     60  H25       -2.6260   -5.6700   24.8960 H     505  INH505      0.0237
     61  H26       -2.8770   -5.1670   23.1900 H     505  INH505      0.0237
     62  H27       -1.2870   -5.8220   23.7080 H     505  INH505      0.0237
     63  H28       -4.7000   -5.7630   21.9290 H     505  INH505      0.0509
     64  H29       -4.9830   -7.2970   21.0400 H     505  INH505      0.0509
     65  H30       -3.7690  -11.0230   22.7370 H     505  INH505      0.0657
     66  H31       -4.5490  -13.5400   22.1170 H     505  INH505      0.0649
     67  H32       -4.6520  -13.6860   19.4450 H     505  INH505      0.1029
@<TRIPOS>BOND
     1     1     2    2
     2     2     4    1
     3     2     3    1
     4     3    37    1
     5     3    36    1
     6     3     8    1
     7     4     5    2
     8     4    38    1
     9     5     7    1
    10     5     6    1
    11     6    40    1
    12     6    39    1
    13     6    15    1
    14     7     8    1
    15     7    10    1
    16     7     9    1
    17     8    42    1
    18     8    41    1
    19     9    45    1
    20     9    44    1
    21     9    43    1
    22    10    14    1
    23    10    12    1
    24    10    11    1
    25    12    46    1
    26    12    21    1
    27    12    13    1
    28    13    47    1
    29    14    15    1
    30    14    48    1
    31    14    16    1
    32    15    50    1
    33    15    49    1
    34    16    20    1
    35    16    51    1
    36    16    17    1
    37    17    53    1
    38    17    52    1
    39    17    18    1
    40    18    54    1
    41    18    23    1
    42    18    19    1
    43    19    57    1
    44    19    56    1
    45    19    55    1
    46    20    21    1
    47    20    23    1
    48    20    22    1
    49    21    59    1
    50    21    58    1
    51    22    62    1
    52    22    61    1
    53    22    60    1
    54    23    28    1
    55    23    24    1
    56    24    26    1
    57    24    25    2
    58    26    64    1
    59    26    63    1
    60    26    27    1
    61    28    29    1
    62    29    31    1
    63    29    30    2
    64    31    35   ar
    65    31    32   ar
    66    32    65    1
    67    32    33   ar
    68    33    66    1
    69    33    34   ar
    70    34    67    1
    71    34    35   ar
