@<TRIPOS>MOLECULE
/tmp/ewbell/vina_1sr7_1sr7_lig/vina/vina2.pdbqt
 36 40 0 0 0
SMALL
GASTEIGER

@<TRIPOS>ATOM
      1  O1        -5.2510  -11.7190   30.1790 O.2   505  INH505     -0.2930
      2  C1        -4.6110  -10.8600   29.6040 C.2   505  INH505      0.1490
      3  C2        -5.2740   -9.5680   29.2930 C.2   505  INH505      0.0840
      4  C3        -3.2700  -11.1520   29.0570 C.2   505  INH505      0.0530
      5  C4        -2.5460  -10.2740   28.2590 C.2   505  INH505     -0.0660
      6  C5        -1.1460  -10.6650   27.7420 C.3   505  INH505      0.0360
      7  C6        -3.0660   -8.8670   27.9930 C.3   505  INH505      0.0040
      8  C7        -4.4810   -8.6010   28.4880 C.2   505  INH505      0.0230
      9  C8        -2.1700   -7.8880   28.7830 C.3   505  INH505      0.0220
     10  C9        -2.9840   -8.6880   26.4470 C.3   505  INH505      0.0780
     11 Cl1        -4.0650   -9.9590   25.6590 Cl    505  INH505     -0.1150
     12  C10       -3.5990   -7.3690   25.9140 C.3   505  INH505      0.1440
     13  C11       -1.5450   -8.9230   25.9060 C.3   505  INH505      0.0180
     14  C12       -1.1300  -10.3530   26.2230 C.3   505  INH505      0.0110
     15  C13       -1.5020   -8.6110   24.4170 C.3   505  INH505      0.0040
     16  C14       -0.2600   -8.8800   23.5100 C.3   505  INH505      0.0130
     17  C15       -0.6060   -8.2170   22.2320 C.3   505  INH505      0.0260
     18  C16       -0.1960   -9.1220   21.0670 C.3   505  INH505      0.0130
     19  C17       -2.1730   -7.3280   23.9000 C.3   505  INH505      0.0020
     20  C18       -3.6350   -7.2130   24.4460 C.3   505  INH505      0.0460
     21  C19       -1.3560   -6.1270   24.4650 C.3   505  INH505      0.0190
     22  C20       -1.9330   -7.4640   22.3820 C.3   505  INH505      0.1430
     23  O4        -2.9580   -8.4750   22.0450 O.3   505  INH505     -0.2950
     24  C23       -3.3810   -8.4960   20.7340 C.2   505  INH505      0.3180
     25  O5        -3.0440   -9.3000   19.8720 O.2   505  INH505     -0.2570
     26  C24       -4.4340   -7.4890   20.6010 C.ar  505  INH505      0.1490
     27  O6        -5.3640   -7.1620   21.6110 O.2   505  INH505     -0.3170
     28  C27       -6.1190   -6.1440   21.0420 C.ar  505  INH505      0.1430
     29  C26       -5.6630   -5.8830   19.7460 C.ar  505  INH505      0.0270
     30  C25       -4.5670   -6.7430   19.5290 C.ar  505  INH505      0.0450
     31  C21       -2.1670   -6.2250   21.6680 C.2   505  INH505      0.1760
     32  O3        -2.8620   -5.3620   22.2390 O.2   505  INH505     -0.2930
     33  C22       -1.6990   -6.0910   20.2990 C.3   505  INH505      0.1960
     34 Cl2        -2.3750   -4.6600   19.5970 Cl    505  INH505     -0.1220
     35  O2        -3.2500   -6.1620   26.5330 O.3   505  INH505     -0.3940
     36  H12       -4.0330   -5.7350   26.8570 H     505  INH505      0.2100
@<TRIPOS>BOND
     1    30    29   ar
     2    30    26   ar
     3    34    33    1
     4    29    28   ar
     5    25    24    2
     6    33    31    1
     7    26    24    1
     8    26    27   ar
     9    24    23    1
    10    28    27   ar
    11    18    17    1
    12    31    32    2
    13    31    22    1
    14    23    22    1
    15    17    22    1
    16    17    16    1
    17    22    19    1
    18    16    15    1
    19    19    15    1
    20    19    20    1
    21    19    21    1
    22    15    13    1
    23    20    12    1
    24    11    10    1
    25    13    14    1
    26    13    10    1
    27    12    10    1
    28    12    35    1
    29    14     6    1
    30    10     7    1
    31    35    36    1
    32     6     5    1
    33     7     5    1
    34     7     8    1
    35     7     9    1
    36     5     4    2
    37     8     3    2
    38     4     2    1
    39     3     2    1
    40     2     1    2
