@<TRIPOS>MOLECULE
/tmp/ewbell/vina_1sr7_1sr7_lig/vina/vina4.pdbqt
 36 40 0 0 0
SMALL
GASTEIGER

@<TRIPOS>ATOM
      1  O1         2.8180  -13.2520   15.8370 O.2   505  INH505     -0.2930
      2  C1         3.2730  -12.3280   15.1900 C.2   505  INH505      0.1490
      3  C2         3.2830  -10.9730   15.7970 C.2   505  INH505      0.0840
      4  C3         3.6330  -12.5020   13.7680 C.2   505  INH505      0.0530
      5  C4         4.0110  -11.4630   12.9280 C.2   505  INH505     -0.0660
      6  C5         4.3800  -11.7460   11.4560 C.3   505  INH505      0.0360
      7  C6         4.1940  -10.0550   13.4770 C.3   505  INH505      0.0040
      8  C7         3.7430   -9.8640   14.9190 C.2   505  INH505      0.0230
      9  C8         5.7090   -9.7550   13.4850 C.3   505  INH505      0.0220
     10  C9         3.3750   -9.1350   12.5210 C.3   505  INH505      0.0780
     11 Cl1         1.6060   -9.6550   12.5930 Cl    505  INH505     -0.1150
     12  C10        3.2920   -7.6520   12.9640 C.3   505  INH505      0.1440
     13  C11        3.8280   -9.2790   11.0410 C.3   505  INH505      0.0180
     14  C12        3.6010  -10.7170   10.5960 C.3   505  INH505      0.0110
     15  C13        3.0840   -8.2690   10.1790 C.3   505  INH505      0.0040
     16  C14        3.1710   -8.2280    8.6200 C.3   505  INH505      0.0130
     17  C15        2.4810   -6.9670    8.2620 C.3   505  INH505      0.0260
     18  C16        1.5850   -7.2110    7.0440 C.3   505  INH505      0.0130
     19  C17        2.9570   -6.8170   10.6660 C.3   505  INH505      0.0020
     20  C18        2.4370   -6.7740   12.1400 C.3   505  INH505      0.0460
     21  C19        4.3910   -6.2030   10.6470 C.3   505  INH505      0.0190
     22  C20        2.1040   -6.2030    9.5350 C.3   505  INH505      0.1430
     23  O4         0.7730   -6.7370    9.8940 O.3   505  INH505     -0.2950
     24  C23       -0.3020   -5.9180    9.6260 C.2   505  INH505      0.3180
     25  O5        -0.8490   -5.7640    8.5410 O.2   505  INH505     -0.2570
     26  C24       -0.7780   -5.3940   10.9080 C.ar  505  INH505      0.1490
     27  O6        -1.1380   -4.0500   11.1410 O.2   505  INH505     -0.3170
     28  C27       -1.5560   -4.0490   12.4650 C.ar  505  INH505      0.1430
     29  C26       -1.4420   -5.3370   12.9990 C.ar  505  INH505      0.0270
     30  C25       -0.9750   -6.1610   11.9550 C.ar  505  INH505      0.0450
     31  C21        2.1080   -4.7530    9.5590 C.2   505  INH505      0.1760
     32  O3         2.0470   -4.2030   10.6760 O.2   505  INH505     -0.2930
     33  C22        2.0580   -4.0190    8.3070 C.3   505  INH505      0.1960
     34 Cl2         0.9600   -2.6900    8.4620 Cl    505  INH505     -0.1220
     35  O2         4.4680   -6.9900   13.3370 O.3   505  INH505     -0.3940
     36  H12        4.8670   -6.5970   12.5710 H     505  INH505      0.2100
@<TRIPOS>BOND
     1    18    17    1
     2    17    16    1
     3    17    22    1
     4    33    34    1
     5    33    31    1
     6    25    24    2
     7    16    15    1
     8    22    31    1
     9    22    23    1
    10    22    19    1
    11    31    32    2
    12    24    23    1
    13    24    26    1
    14    15    19    1
    15    15    13    1
    16    14    13    1
    17    14     6    1
    18    21    19    1
    19    19    20    1
    20    26    27   ar
    21    26    30   ar
    22    13    10    1
    23    27    28   ar
    24     6     5    1
    25    30    29   ar
    26    20    12    1
    27    28    29   ar
    28    10    11    1
    29    10    12    1
    30    10     7    1
    31    36    35    1
    32     5     7    1
    33     5     4    2
    34    12    35    1
    35     7     9    1
    36     7     8    1
    37     4     2    1
    38     8     3    2
    39     2     3    1
    40     2     1    2
