@<TRIPOS>MOLECULE
/tmp/ewbell/vina_1sr7_1sr7_lig/vina/vina5.pdbqt
 36 40 0 0 0
SMALL
GASTEIGER

@<TRIPOS>ATOM
      1  O1        -1.8080   -6.5180    7.5790 O.2   505  INH505     -0.2930
      2  C1        -0.7390   -6.3220    8.1240 C.2   505  INH505      0.1490
      3  C2         0.5060   -6.6460    7.3830 C.2   505  INH505      0.0840
      4  C3        -0.6710   -5.9520    9.5520 C.2   505  INH505      0.0530
      5  C4         0.5090   -5.8620   10.2790 C.2   505  INH505     -0.0660
      6  C5         0.4790   -5.4570   11.7670 C.3   505  INH505      0.0360
      7  C6         1.8550   -6.0330    9.5870 C.3   505  INH505      0.0040
      8  C7         1.7780   -6.4960    8.1390 C.2   505  INH505      0.0230
      9  C8         2.5260   -4.6440    9.5330 C.3   505  INH505      0.0220
     10  C9         2.6290   -7.0730   10.4530 C.3   505  INH505      0.0780
     11 Cl1         1.6730   -8.6520   10.4540 Cl    505  INH505     -0.1150
     12  C10        3.9900   -7.5220    9.8630 C.3   505  INH505      0.1440
     13  C11        2.7540   -6.6210   11.9360 C.3   505  INH505      0.0180
     14  C12        1.3580   -6.4840   12.5270 C.3   505  INH505      0.0110
     15  C13        3.6240   -7.6100   12.6990 C.3   505  INH505      0.0040
     16  C14        3.8440   -7.5600   14.2440 C.3   505  INH505      0.0130
     17  C15        4.9180   -8.5520   14.4800 C.3   505  INH505      0.0260
     18  C16        4.5790   -9.3760   15.7260 C.3   505  INH505      0.0130
     19  C17        4.9400   -8.0930   12.0680 C.3   505  INH505      0.0020
     20  C18        4.7010   -8.5850   10.6020 C.3   505  INH505      0.0460
     21  C19        5.8960   -6.8620   12.0090 C.3   505  INH505      0.0190
     22  C20        5.4290   -9.0910   13.1390 C.3   505  INH505      0.1430
     23  O4         4.5410  -10.2380   12.8520 O.3   505  INH505     -0.2950
     24  C23        4.6900  -11.3390   13.6650 C.2   505  INH505      0.3180
     25  O5         5.7460  -11.7980   14.0870 O.2   505  INH505     -0.2570
     26  C24        3.3490  -11.7630   14.0730 C.ar  505  INH505      0.1490
     27  O6         3.0750  -12.8700   14.9040 O.2   505  INH505     -0.3170
     28  C27        1.6930  -12.8440   15.0370 C.ar  505  INH505      0.1430
     29  C26        1.1670  -11.7710   14.3090 C.ar  505  INH505      0.0270
     30  C25        2.2670  -11.0960   13.7440 C.ar  505  INH505      0.0450
     31  C21        6.8220   -9.4540   12.9680 C.2   505  INH505      0.1760
     32  O3         7.6050   -9.1580   13.8920 O.2   505  INH505     -0.2930
     33  C22        7.2610  -10.0240   11.7060 C.3   505  INH505      0.1960
     34 Cl2         8.9820   -9.8900   11.5810 Cl    505  INH505     -0.1220
     35  O2         4.8860   -6.5460    9.4120 O.3   505  INH505     -0.3940
     36  H12        4.4040   -5.8400    9.0000 H     505  INH505      0.2100
@<TRIPOS>BOND
     1     3     2    1
     2     3     8    2
     3     1     2    2
     4     2     4    1
     5     8     7    1
     6    36    35    1
     7    35    12    1
     8     9     7    1
     9     4     5    2
    10     7     5    1
    11     7    10    1
    12    12    10    1
    13    12    20    1
    14     5     6    1
    15    10    11    1
    16    10    13    1
    17    20    19    1
    18    34    33    1
    19    33    31    1
    20     6    14    1
    21    13    14    1
    22    13    15    1
    23    21    19    1
    24    19    15    1
    25    19    22    1
    26    15    16    1
    27    23    22    1
    28    23    24    1
    29    31    22    1
    30    31    32    2
    31    22    17    1
    32    24    26    1
    33    24    25    2
    34    30    26   ar
    35    30    29   ar
    36    26    27   ar
    37    16    17    1
    38    29    28   ar
    39    17    18    1
    40    27    28   ar
