@<TRIPOS>MOLECULE
/tmp/ewbell/vina_1sr7_1sr7_lig/vina/vina3.pdbqt
 36 40 0 0 0
SMALL
GASTEIGER

@<TRIPOS>ATOM
      1  O1         3.7690  -14.3640   16.6400 O.2   505  INH505     -0.2930
      2  C1         4.1440  -13.2880   16.2180 C.2   505  INH505      0.1490
      3  C2         3.5230  -12.0550   16.7660 C.2   505  INH505      0.0840
      4  C3         5.0530  -13.2020   15.0570 C.2   505  INH505      0.0530
      5  C4         5.4000  -12.0150   14.4250 C.2   505  INH505     -0.0660
      6  C5         6.3680  -12.0260   13.2230 C.3   505  INH505      0.0360
      7  C6         4.9370  -10.6780   14.9880 C.3   505  INH505      0.0040
      8  C7         3.9360  -10.7750   16.1310 C.2   505  INH505      0.0230
      9  C8         6.1740   -9.9780   15.5930 C.3   505  INH505      0.0220
     10  C9         4.3140   -9.9190   13.7770 C.3   505  INH505      0.0780
     11 Cl1         2.8890  -10.9070   13.1470 Cl    505  INH505     -0.1150
     12  C10        3.6370   -8.5720   14.1360 C.3   505  INH505      0.1440
     13  C11        5.3190   -9.7730   12.5990 C.3   505  INH505      0.0180
     14  C12        5.7110  -11.1620   12.1150 C.3   505  INH505      0.0110
     15  C13        4.6990   -8.9180   11.5030 C.3   505  INH505      0.0040
     16  C14        5.3580   -8.6860   10.1070 C.3   505  INH505      0.0130
     17  C15        4.5200   -7.6310    9.4920 C.3   505  INH505      0.0260
     18  C16        4.2710   -7.9770    8.0210 C.3   505  INH505      0.0130
     19  C17        3.9760   -7.6170   11.8860 C.3   505  INH505      0.0020
     20  C18        2.9440   -7.8770   13.0330 C.3   505  INH505      0.0460
     21  C19        5.0590   -6.6370   12.4320 C.3   505  INH505      0.0190
     22  C20        3.4790   -7.1410   10.5040 C.3   505  INH505      0.1430
     23  O4         2.3320   -8.0540   10.3100 O.3   505  INH505     -0.2950
     24  C23        1.2910   -7.5670    9.5520 C.2   505  INH505      0.3180
     25  O5         1.3550   -7.1670    8.3960 O.2   505  INH505     -0.2570
     26  C24        0.0620   -7.7720   10.3200 C.ar  505  INH505      0.1490
     27  O6        -0.8100   -6.7400   10.7310 O.2   505  INH505     -0.3170
     28  C27       -1.8340   -7.4180   11.3800 C.ar  505  INH505      0.1430
     29  C26       -1.5780   -8.7930   11.3640 C.ar  505  INH505      0.0270
     30  C25       -0.3770   -8.9660   10.6470 C.ar  505  INH505      0.0450
     31  C21        3.0480   -5.7570   10.5140 C.2   505  INH505      0.1760
     32  O3         2.1600   -5.4440   11.3310 O.2   505  INH505     -0.2930
     33  C22        3.5660   -4.8410    9.5120 C.3   505  INH505      0.1960
     34 Cl2         4.9830   -4.0590   10.1250 Cl    505  INH505     -0.1220
     35  O2         4.3310   -7.6590   14.9390 O.3   505  INH505     -0.3940
     36  H12        3.9940   -7.6970   15.8260 H     505  INH505      0.2100
@<TRIPOS>BOND
     1    18    17    1
     2    25    24    2
     3    17    16    1
     4    17    22    1
     5    33    34    1
     6    33    31    1
     7    24    23    1
     8    24    26    1
     9    16    15    1
    10    23    22    1
    11    26    30   ar
    12    26    27   ar
    13    22    31    1
    14    22    19    1
    15    31    32    2
    16    30    29   ar
    17    27    28   ar
    18    29    28   ar
    19    15    19    1
    20    15    13    1
    21    19    21    1
    22    19    20    1
    23    14    13    1
    24    14     6    1
    25    13    10    1
    26    20    12    1
    27    11    10    1
    28     6     5    1
    29    10    12    1
    30    10     7    1
    31    12    35    1
    32     5     7    1
    33     5     4    2
    34    35    36    1
    35     7     9    1
    36     7     8    1
    37     4     2    1
    38     8     3    2
    39     2     1    2
    40     2     3    1
