@<TRIPOS>MOLECULE
/tmp/ewbell/vina_1sr7_1sr7_lig/vina/vina1.pdbqt
 36 40 0 0 0
SMALL
GASTEIGER

@<TRIPOS>ATOM
      1  O1        -4.9560  -11.4070   30.3790 O.2   505  INH505     -0.2930
      2  C1        -4.5660  -10.5040   29.6650 C.2   505  INH505      0.1490
      3  C2        -5.5650   -9.5510   29.1170 C.2   505  INH505      0.0840
      4  C3        -3.1670  -10.4570   29.1950 C.2   505  INH505      0.0530
      5  C4        -2.6890   -9.5470   28.2600 C.2   505  INH505     -0.0660
      6  C5        -1.2050   -9.5710   27.8390 C.3   505  INH505      0.0360
      7  C6        -3.5880   -8.4350   27.7370 C.3   505  INH505      0.0040
      8  C7        -5.0480   -8.5380   28.1590 C.2   505  INH505      0.0230
      9  C8        -3.0830   -7.1090   28.3460 C.3   505  INH505      0.0220
     10  C9        -3.4610   -8.5040   26.1850 C.3   505  INH505      0.0780
     11 Cl1        -4.0560  -10.1600   25.6290 Cl    505  INH505     -0.1150
     12  C10       -4.4070   -7.5480   25.4150 C.3   505  INH505      0.1440
     13  C11       -1.9850   -8.3730   25.7120 C.3   505  INH505      0.0180
     14  C12       -1.1820   -9.5300   26.2880 C.3   505  INH505      0.0110
     15  C13       -1.9390   -8.3200   24.1920 C.3   505  INH505      0.0040
     16  C14       -0.6160   -8.3430   23.3630 C.3   505  INH505      0.0130
     17  C15       -1.0600   -8.0450   21.9820 C.3   505  INH505      0.0260
     18  C16       -0.3200   -8.9640   21.0050 C.3   505  INH505      0.0130
     19  C17       -2.9290   -7.4130   23.4430 C.3   505  INH505      0.0020
     20  C18       -4.3910   -7.6620   23.9430 C.3   505  INH505      0.0460
     21  C19       -2.5510   -5.9400   23.7900 C.3   505  INH505      0.0190
     22  C20       -2.5580   -7.7230   21.9770 C.3   505  INH505      0.1430
     23  O4        -3.2080   -9.0420   21.8180 O.3   505  INH505     -0.2950
     24  C23       -3.3540   -9.4930   20.5250 C.2   505  INH505      0.3180
     25  O5        -3.0760   -8.8790   19.5010 O.2   505  INH505     -0.2570
     26  C24       -3.7430  -10.9030   20.5980 C.ar  505  INH505      0.1490
     27  O6        -3.9310  -11.6220   21.7980 O.2   505  INH505     -0.3170
     28  C27       -4.3250  -12.8810   21.3650 C.ar  505  INH505      0.1430
     29  C26       -4.3630  -12.9120   19.9670 C.ar  505  INH505      0.0270
     30  C25       -4.0170  -11.6170   19.5310 C.ar  505  INH505      0.0450
     31  C21       -3.1070   -6.7560   21.0480 C.2   505  INH505      0.1760
     32  O3        -2.2960   -6.0990   20.3660 O.2   505  INH505     -0.2930
     33  C22       -4.5380   -6.5090   21.0360 C.3   505  INH505      0.1960
     34 Cl2        -4.9800   -5.7510   19.5440 Cl    505  INH505     -0.1220
     35  O2        -4.4790   -6.2060   25.8080 O.3   505  INH505     -0.3940
     36  H12       -4.6290   -5.6600   25.0450 H     505  INH505      0.2100
@<TRIPOS>BOND
     1    25    24    2
     2    30    29   ar
     3    30    26   ar
     4    34    33    1
     5    29    28   ar
     6    32    31    2
     7    24    26    1
     8    24    23    1
     9    26    27   ar
    10    18    17    1
    11    33    31    1
    12    31    22    1
    13    28    27   ar
    14    23    22    1
    15    22    17    1
    16    22    19    1
    17    17    16    1
    18    16    15    1
    19    19    21    1
    20    19    20    1
    21    19    15    1
    22    20    12    1
    23    15    13    1
    24    36    35    1
    25    12    35    1
    26    12    10    1
    27    11    10    1
    28    13    10    1
    29    13    14    1
    30    10     7    1
    31    14     6    1
    32     7     8    1
    33     7     5    1
    34     7     9    1
    35     6     5    1
    36     8     3    2
    37     5     4    2
    38     3     2    1
    39     4     2    1
    40     2     1    2
