@<TRIPOS>MOLECULE
./ligand/2brb_lig.pdb
 42 45 0 0 0
SMALL
GASTEIGER

@<TRIPOS>ATOM
      1  C1        14.3110    0.2600    9.6510 C.2   275  INH275      0.2821
      2  C2        18.3220   -1.7000    9.2930 C.2   275  INH275      0.1436
      3  C3        19.6470   -1.9520    8.9490 C.ar  275  INH275      0.0177
      4  C4        20.3240   -3.1340    9.2430 C.ar  275  INH275     -0.0511
      5  C5        21.6530   -3.2690    8.8360 C.ar  275  INH275     -0.0611
      6  C6        22.2900   -2.2420    8.1380 C.ar  275  INH275     -0.0617
      7  C7        21.6140   -1.0560    7.8470 C.ar  275  INH275     -0.0611
      8  C8        20.2910   -0.9400    8.2410 C.ar  275  INH275     -0.0511
      9  C9        16.9690   -4.8120   10.0740 C.ar  275  INH275     -0.0542
     10  C10       17.0350   -6.0670   10.6850 C.ar  275  INH275     -0.0612
     11  C11       17.6450   -6.1780   11.9360 C.ar  275  INH275     -0.0617
     12  C12       18.1740   -5.0270   12.5490 C.ar  275  INH275     -0.0612
     13  N1        15.5150    0.4240    9.1270 N.2   275  INH275     -0.3348
     14  C13       16.4650   -0.5070    9.2980 C.2   275  INH275      0.2757
     15  O1        17.7520   -0.5450    8.8630 O.2   275  INH275     -0.4301
     16  C14       16.2030   -1.6630   10.0320 C.3   275  INH275      0.2196
     17  N2        14.5520   -2.8610   11.2950 N.pl3 275  INH275     -0.2338
     18  C15       14.9180   -1.7990   10.5690 C.2   275  INH275      0.3129
     19  N3        14.0200   -0.8210   10.3510 N.2   275  INH275     -0.0194
     20  C16       18.1030   -3.7740   11.9320 C.ar  275  INH275     -0.0542
     21  C17       17.3790   -2.4230   10.0340 C.2   275  INH275      0.0324
     22  C18       17.5000   -3.6660   10.6770 C.ar  275  INH275     -0.0167
     23  C19       12.6900   -2.5010   12.8800 C.3   275  INH275      0.0800
     24  C20       13.1250   -3.1390   11.5520 C.3   275  INH275      0.1009
     25  O2        12.1850   -1.1800   12.6450 O.3   275  INH275     -0.3913
     26  H1        13.5540    1.0220    9.5040 H     275  INH275      0.1504
     27  H2        19.8270   -3.9350    9.7780 H     275  INH275      0.0625
     28  H3        22.1950   -4.1800    9.0640 H     275  INH275      0.0618
     29  H4        23.3190   -2.3660    7.8190 H     275  INH275      0.0618
     30  H5        22.1120   -0.2460    7.3260 H     275  INH275      0.0618
     31  H6        19.7430   -0.0390    7.9920 H     275  INH275      0.0625
     32  H7        16.4930   -4.7230    9.1040 H     275  INH275      0.0624
     33  H8        16.6190   -6.9400   10.1960 H     275  INH275      0.0618
     34  H9        17.7100   -7.1410   12.4300 H     275  INH275      0.0618
     35  H10       18.6470   -5.1140   13.5210 H     275  INH275      0.0618
     36  H11       15.2720   -3.4900   11.6780 H     275  INH275      0.2911
     37  H12       18.5110   -2.8970   12.4220 H     275  INH275      0.0624
     38  H13       13.5540   -2.4460   13.5580 H     275  INH275      0.0595
     39  H14       11.9020   -3.1160   13.3390 H     275  INH275      0.0595
     40  H15       12.9700   -4.2270   11.6040 H     275  INH275      0.0747
     41  H16       12.5210   -2.7210   10.7330 H     275  INH275      0.0747
     42  H17       12.8640   -0.6470   12.2480 H     275  INH275      0.2096
@<TRIPOS>BOND
     1     1    26    1
     2     1    19    1
     3     1    13    2
     4     2    15    1
     5     2    21    2
     6     2     3    1
     7     3     8   ar
     8     3     4   ar
     9     4    27    1
    10     4     5   ar
    11     5    28    1
    12     5     6   ar
    13     6    29    1
    14     6     7   ar
    15     7    30    1
    16     7     8   ar
    17     8    31    1
    18     9    22   ar
    19     9    32    1
    20     9    10   ar
    21    10    33    1
    22    10    11   ar
    23    11    34    1
    24    11    12   ar
    25    12    35    1
    26    12    20   ar
    27    13    14    2
    28    14    16    1
    29    14    15    1
    30    16    21    1
    31    16    18    1
    32    17    18    1
    33    17    36    1
    34    17    24    1
    35    18    19    2
    36    20    22   ar
    37    20    37    1
    38    21    22    1
    39    23    24    1
    40    23    39    1
    41    23    38    1
    42    23    25    1
    43    24    41    1
    44    24    40    1
    45    25    42    1
