@<TRIPOS>MOLECULE
/tmp/ewbell/vina_2brb_2brb_lig/vina/vina4.pdbqt
 29 32 0 0 0
SMALL
GASTEIGER

@<TRIPOS>ATOM
      1  C1        18.1190   -0.8820    8.3720 C.3   275  INH275      0.1790
      2  C2        14.7220   -2.1300   11.0100 C.2   275  INH275      0.0960
      3  N1        16.8570   -0.6050    8.6580 N.3   275  INH275     -0.3360
      4  H1        16.3780    0.1440    8.1590 H     275  INH275      0.1680
      5  C13       16.2020   -1.3030    9.5980 C.3   275  INH275      0.1380
      6  O1        14.9230   -1.1980   10.0440 O.2   275  INH275     -0.2950
      7  C14       16.8380   -2.3330   10.2900 C.2   275  INH275      0.2380
      8  C15       18.1720   -2.5940    9.9590 C.2   275  INH275      0.0930
      9  N3        18.7590   -1.8480    9.0050 N.pl3 275  INH275     -0.3640
     10  H3        19.7320   -2.0350    8.7630 H     275  INH275      0.1620
     11  C17       15.9020   -2.8630   11.1860 C.2   275  INH275      0.0030
     12  C3        13.4710   -2.1940   11.6180 C.ar  275  INH275     -0.0020
     13  C8        13.0270   -1.0150   12.2130 C.ar  275  INH275      0.0140
     14  C7        11.7960   -0.9370   12.8430 C.ar  275  INH275      0.0010
     15  C6        11.0120   -2.0900   12.9100 C.ar  275  INH275      0.0000
     16  C5        11.4500   -3.2810   12.3280 C.ar  275  INH275      0.0010
     17  C4        12.6860   -3.3430   11.6820 C.ar  275  INH275      0.0140
     18  C18       16.1810   -3.9250   12.0630 C.ar  275  INH275     -0.0260
     19  C9        16.5370   -3.6520   13.3890 C.ar  275  INH275      0.0120
     20  C10       16.8540   -4.6690   14.2930 C.ar  275  INH275      0.0010
     21  C11       16.8180   -5.9950   13.8580 C.ar  275  INH275      0.0000
     22  C12       16.4670   -6.2730   12.5240 C.ar  275  INH275      0.0010
     23  C16       16.1520   -5.2500   11.6240 C.ar  275  INH275      0.0120
     24  N2        18.8830   -3.5600   10.5510 N.pl3 275  INH275     -0.3980
     25  H11       18.3960   -4.3380   11.0180 H     275  INH275      0.1550
     26  C20       20.3580   -3.5210   10.5400 C.3   275  INH275      0.1410
     27  C19       20.9240   -4.4910   11.5890 C.3   275  INH275      0.1830
     28  O2        19.8510   -5.1000   12.3190 O.3   275  INH275     -0.3990
     29  H17       19.3520   -4.4280   12.7680 H     275  INH275      0.2090
@<TRIPOS>BOND
     1     4     3    1
     2     1     3    1
     3     1     9    1
     4     3     5    1
     5    10     9    1
     6     9     8    1
     7     5     6    1
     8     5     7    1
     9     8     7    2
    10     8    24    1
    11     6     2    1
    12     7    11    1
    13    26    24    1
    14    26    27    1
    15    24    25    1
    16     2    11    2
    17     2    12    1
    18    11    18    1
    19    27    28    1
    20    12    17   ar
    21    12    13   ar
    22    23    18   ar
    23    23    22   ar
    24    17    16   ar
    25    18    19   ar
    26    13    14   ar
    27    28    29    1
    28    16    15   ar
    29    22    21   ar
    30    14    15   ar
    31    19    20   ar
    32    21    20   ar
