@<TRIPOS>MOLECULE
/tmp/ewbell/vina_2brb_2brb_lig/vina/vina2.pdbqt
 29 32 0 0 0
SMALL
GASTEIGER

@<TRIPOS>ATOM
      1  C1        13.2600   -0.1980   10.0940 C.3   275  INH275      0.1790
      2  C2        17.3650   -1.9240    9.6180 C.2   275  INH275      0.0960
      3  N1        14.4350    0.0330    9.5320 N.3   275  INH275     -0.3360
      4  H1        14.5760    0.8820    8.9850 H     275  INH275      0.1680
      5  C13       15.4430   -0.8410    9.6770 C.3   275  INH275      0.1380
      6  O1        16.7150   -0.8060    9.2020 O.2   275  INH275     -0.2950
      7  C14       15.2710   -2.0060   10.4230 C.2   275  INH275      0.2380
      8  C15       14.0130   -2.2130   11.0000 C.2   275  INH275      0.0930
      9  N3        13.0540   -1.2900   10.8070 N.pl3 275  INH275     -0.3640
     10  H3        12.1350   -1.4390   11.2250 H     275  INH275      0.1620
     11  C17       16.4890   -2.6960   10.3910 C.2   275  INH275      0.0030
     12  C3        18.6910   -2.1010    9.2340 C.ar  275  INH275     -0.0020
     13  C8        19.1670   -1.2070    8.2770 C.ar  275  INH275      0.0140
     14  C7        20.4720   -1.2630    7.8150 C.ar  275  INH275      0.0010
     15  C6        21.3030   -2.2740    8.3000 C.ar  275  INH275      0.0000
     16  C5        20.8350   -3.1840    9.2490 C.ar  275  INH275      0.0010
     17  C4        19.5230   -3.1070    9.7200 C.ar  275  INH275      0.0140
     18  C18       16.7010   -3.9270   11.0340 C.ar  275  INH275     -0.0260
     19  C9        16.9830   -3.9520   12.4040 C.ar  275  INH275      0.0120
     20  C10       17.2330   -5.1460   13.0860 C.ar  275  INH275      0.0010
     21  C11       17.2050   -6.3480   12.3760 C.ar  275  INH275      0.0000
     22  C12       16.9290   -6.3270   10.9960 C.ar  275  INH275      0.0010
     23  C16       16.6810   -5.1270   10.3200 C.ar  275  INH275      0.0120
     24  N2        13.7320   -3.2910   11.7410 N.pl3 275  INH275     -0.3980
     25  H11       14.4690   -3.9840   11.9330 H     275  INH275      0.1550
     26  C20       12.3750   -3.4950   12.2850 C.3   275  INH275      0.1410
     27  C19       12.2830   -2.9280   13.7100 C.3   275  INH275      0.1830
     28  O2        11.6480   -1.6440   13.6850 O.3   275  INH275     -0.3990
     29  H17       10.9140   -1.6410   14.2880 H     275  INH275      0.2090
@<TRIPOS>BOND
     1    14    13   ar
     2    14    15   ar
     3    13    12   ar
     4    15    16   ar
     5     4     3    1
     6     6     2    1
     7     6     5    1
     8    12     2    1
     9    12    17   ar
    10    16    17   ar
    11     3     5    1
    12     3     1    1
    13     2    11    2
    14     5     7    1
    15     1     9    1
    16    23    22   ar
    17    23    18   ar
    18    11     7    1
    19    11    18    1
    20     7     8    2
    21     9     8    1
    22     9    10    1
    23    22    21   ar
    24     8    24    1
    25    18    19   ar
    26    24    25    1
    27    24    26    1
    28    26    27    1
    29    21    20   ar
    30    19    20   ar
    31    28    27    1
    32    28    29    1
