@<TRIPOS>MOLECULE
/tmp/ewbell/vina_2brb_2brb_lig/vina/vina3.pdbqt
 29 32 0 0 0
SMALL
GASTEIGER

@<TRIPOS>ATOM
      1  C1        17.3760   -7.6530   12.4690 C.3   275  INH275      0.1790
      2  C2        16.2910   -3.6290   10.8300 C.2   275  INH275      0.0960
      3  N1        17.7940   -6.7120   11.6380 N.3   275  INH275     -0.3360
      4  H1        18.6670   -6.8400   11.1270 H     275  INH275      0.1680
      5  C13       17.0780   -5.5920   11.4610 C.3   275  INH275      0.1380
      6  O1        17.3070   -4.5140   10.6660 O.2   275  INH275     -0.2950
      7  C14       15.8800   -5.3990   12.1480 C.2   275  INH275      0.2380
      8  C15       15.4730   -6.4160   13.0180 C.2   275  INH275      0.0930
      9  N3        16.2490   -7.5090   13.1420 N.pl3 275  INH275     -0.3640
     10  H3        15.9560   -8.2520   13.7760 H     275  INH275      0.1620
     11  C17       15.3750   -4.1550   11.7500 C.2   275  INH275      0.0030
     12  C3        16.3280   -2.4370   10.1120 C.ar  275  INH275     -0.0020
     13  C8        17.5330   -2.1550    9.4710 C.ar  275  INH275      0.0140
     14  C7        17.7020   -1.0080    8.7130 C.ar  275  INH275      0.0010
     15  C6        16.6430   -0.1030    8.6360 C.ar  275  INH275      0.0000
     16  C5        15.4350   -0.3670    9.2830 C.ar  275  INH275      0.0010
     17  C4        15.2700   -1.5350   10.0310 C.ar  275  INH275      0.0140
     18  C18       14.1730   -3.6130   12.2350 C.ar  275  INH275     -0.0260
     19  C9        12.9850   -3.8130   11.5230 C.ar  275  INH275      0.0120
     20  C10       11.7690   -3.2700   11.9450 C.ar  275  INH275      0.0010
     21  C11       11.7420   -2.5000   13.1100 C.ar  275  INH275      0.0000
     22  C12       12.9350   -2.2900   13.8250 C.ar  275  INH275      0.0010
     23  C16       14.1490   -2.8360   13.3960 C.ar  275  INH275      0.0120
     24  N2        14.3410   -6.3460   13.7260 N.pl3 275  INH275     -0.3980
     25  H11       13.5010   -5.9220   13.3050 H     275  INH275      0.1550
     26  C20       14.2830   -6.8700   15.1050 C.3   275  INH275      0.1410
     27  C19       14.7150   -5.7850   16.1040 C.3   275  INH275      0.1830
     28  O2        14.1330   -6.0450   17.3880 O.3   275  INH275     -0.3990
     29  H17       13.7270   -6.9040   17.3850 H     275  INH275      0.2090
@<TRIPOS>BOND
     1    15    14   ar
     2    15    16   ar
     3    14    13   ar
     4    16    17   ar
     5    13    12   ar
     6    17    12   ar
     7    12     2    1
     8     6     2    1
     9     6     5    1
    10     2    11    2
    11     4     3    1
    12     5     3    1
    13     5     7    1
    14    19    20   ar
    15    19    18   ar
    16     3     1    1
    17    11     7    1
    18    11    18    1
    19    20    21   ar
    20     7     8    2
    21    18    23   ar
    22     1     9    1
    23     8     9    1
    24     8    24    1
    25    21    22   ar
    26     9    10    1
    27    25    24    1
    28    23    22   ar
    29    24    26    1
    30    26    27    1
    31    27    28    1
    32    29    28    1
