@<TRIPOS>MOLECULE
/tmp/ewbell/vina_2brb_2brb_lig/vina/vina1.pdbqt
 29 32 0 0 0
SMALL
GASTEIGER

@<TRIPOS>ATOM
      1  C1        20.8970   -1.4550    8.0330 C.3   275  INH275      0.1790
      2  C2        16.7540   -1.8130    9.6950 C.2   275  INH275      0.0960
      3  N1        19.7130   -0.8640    8.0330 N.3   275  INH275     -0.3360
      4  H1        19.5740   -0.0110    7.4940 H     275  INH275      0.1680
      5  C13       18.6950   -1.3800    8.7370 C.3   275  INH275      0.1380
      6  O1        17.4120   -0.9530    8.8760 O.2   275  INH275     -0.2950
      7  C14       18.8640   -2.5480    9.4800 C.2   275  INH275      0.2380
      8  C15       20.1310   -3.1410    9.4540 C.2   275  INH275      0.0930
      9  N3        21.1010   -2.5610    8.7240 N.pl3 275  INH275     -0.3640
     10  H3        22.0260   -2.9910    8.7050 H     275  INH275      0.1620
     11  C17       17.6340   -2.8290   10.0880 C.2   275  INH275      0.0030
     12  C3        15.4160   -1.5590    9.9840 C.ar  275  INH275     -0.0020
     13  C8        14.9670   -0.2750    9.6840 C.ar  275  INH275      0.0140
     14  C7        13.6550    0.1080    9.9110 C.ar  275  INH275      0.0010
     15  C6        12.7870   -0.8160   10.4960 C.ar  275  INH275      0.0000
     16  C5        13.2280   -2.1020   10.8130 C.ar  275  INH275      0.0010
     17  C4        14.5480   -2.4820   10.5640 C.ar  275  INH275      0.0140
     18  C18       17.4150   -3.9370   10.9230 C.ar  275  INH275     -0.0260
     19  C9        17.0600   -5.1680   10.3610 C.ar  275  INH275      0.0120
     20  C10       16.8020   -6.2930   11.1490 C.ar  275  INH275      0.0010
     21  C11       16.8960   -6.1820   12.5370 C.ar  275  INH275      0.0000
     22  C12       17.2460   -4.9440   13.1070 C.ar  275  INH275      0.0010
     23  C16       17.5020   -3.8220   12.3120 C.ar  275  INH275      0.0120
     24  N2        20.4110   -4.2660   10.1220 N.pl3 275  INH275     -0.3980
     25  H11       20.1380   -5.1760    9.7250 H     275  INH275      0.1550
     26  C20       21.1070   -4.2130   11.4230 C.3   275  INH275      0.1410
     27  C19       21.2860   -5.6300   11.9880 C.3   275  INH275      0.1830
     28  O2        20.2680   -6.4960   11.4670 O.3   275  INH275     -0.3990
     29  H17       20.0210   -6.2060   10.5970 H     275  INH275      0.2090
@<TRIPOS>BOND
     1     4     3    1
     2     1     3    1
     3     1     9    1
     4     3     5    1
     5    10     9    1
     6     9     8    1
     7     5     6    1
     8     5     7    1
     9     6     2    1
    10     8     7    2
    11     8    24    1
    12     7    11    1
    13    13    14   ar
    14    13    12   ar
    15     2    12    1
    16     2    11    2
    17    25    24    1
    18    14    15   ar
    19    12    17   ar
    20    11    18    1
    21    24    26    1
    22    19    18   ar
    23    19    20   ar
    24    15    16   ar
    25    17    16   ar
    26    29    28    1
    27    18    23   ar
    28    20    21   ar
    29    26    27    1
    30    28    27    1
    31    23    22   ar
    32    21    22   ar
