@<TRIPOS>MOLECULE
/tmp/ewbell/vina_2brb_2brb_lig/vina/vina5.pdbqt
 29 32 0 0 0
SMALL
GASTEIGER

@<TRIPOS>ATOM
      1  C1        14.7890   -6.1270   16.5880 C.3   275  INH275      0.1790
      2  C2        14.3470   -3.2610   13.1740 C.2   275  INH275      0.0960
      3  N1        13.9730   -5.2160   16.0820 N.3   275  INH275     -0.3360
      4  H1        13.0960   -5.0040   16.5570 H     275  INH275      0.1680
      5  C13       14.2900   -4.5700   14.9510 C.3   275  INH275      0.1380
      6  O1        13.6180   -3.6080   14.2660 O.2   275  INH275     -0.2950
      7  C14       15.4850   -4.8430   14.2870 C.2   275  INH275      0.2380
      8  C15       16.3210   -5.8130   14.8530 C.2   275  INH275      0.0930
      9  N3        15.9300   -6.4180   15.9900 N.pl3 275  INH275     -0.3640
     10  H3        16.5360   -7.1260   16.4040 H     275  INH275      0.1620
     11  C17       15.5280   -4.0140   13.1600 C.2   275  INH275      0.0030
     12  C3        13.8360   -2.2900   12.3170 C.ar  275  INH275     -0.0020
     13  C8        12.9250   -1.4020   12.8850 C.ar  275  INH275      0.0140
     14  C7        12.3500   -0.3810   12.1470 C.ar  275  INH275      0.0010
     15  C6        12.6690   -0.2810   10.7920 C.ar  275  INH275      0.0000
     16  C5        13.5710   -1.1720   10.2080 C.ar  275  INH275      0.0010
     17  C4        14.1580   -2.1870   10.9660 C.ar  275  INH275      0.0140
     18  C18       16.5890   -4.0080   12.2390 C.ar  275  INH275     -0.0260
     19  C9        17.6830   -3.1600   12.4490 C.ar  275  INH275      0.0120
     20  C10       18.7490   -3.0930   11.5490 C.ar  275  INH275      0.0010
     21  C11       18.7190   -3.8920   10.4040 C.ar  275  INH275      0.0000
     22  C12       17.6170   -4.7410   10.1860 C.ar  275  INH275      0.0010
     23  C16       16.5530   -4.8020   11.0910 C.ar  275  INH275      0.0120
     24  N2        17.4940   -6.1560   14.3100 N.pl3 275  INH275     -0.3980
     25  H11       18.2040   -5.4320   14.1320 H     275  INH275      0.1550
     26  C20       17.7790   -7.5620   13.9650 C.3   275  INH275      0.1410
     27  C19       16.9240   -7.9990   12.7660 C.3   275  INH275      0.1830
     28  O2        16.8340   -9.4290   12.7250 O.3   275  INH275     -0.3990
     29  H17       17.6250   -9.8070   13.0910 H     275  INH275      0.2090
@<TRIPOS>BOND
     1    22    21   ar
     2    22    23   ar
     3    16    15   ar
     4    16    17   ar
     5    21    20   ar
     6    15    14   ar
     7    17    12   ar
     8    23    18   ar
     9    20    19   ar
    10    14    13   ar
    11    18    19   ar
    12    18    11    1
    13    12    13   ar
    14    12     2    1
    15    28    27    1
    16    28    29    1
    17    27    26    1
    18    11     2    2
    19    11     7    1
    20     2     6    1
    21    26    24    1
    22    25    24    1
    23     6     5    1
    24     7     8    2
    25     7     5    1
    26    24     8    1
    27     8     9    1
    28     5     3    1
    29     9    10    1
    30     9     1    1
    31     3     4    1
    32     3     1    1
