@<TRIPOS>MOLECULE
./ligand/1kzk_lig.pdb
 78 81 0 0 0
SMALL
GASTEIGER

@<TRIPOS>ATOM
      1  C1        24.5000    2.3990   20.4240 C.ar  203  INH203      0.1205
      2  O1        25.8560    2.4460   20.5620 O.3   203  INH203     -0.5065
      3  C2        23.6870    3.4480   20.9470 C.ar  203  INH203     -0.0199
      4  C3        22.3390    3.4320   20.7260 C.ar  203  INH203     -0.0576
      5  C4        21.7270    2.3540   20.0240 C.ar  203  INH203     -0.0492
      6  C5        22.5330    1.3470   19.4330 C.ar  203  INH203      0.0431
      7  C6        23.9500    1.3580   19.6050 C.ar  203  INH203      0.0030
      8  C7        24.8990    0.3740   18.9300 C.3   203  INH203     -0.0355
      9  C8        21.8480    0.2670   18.6660 C.2   203  INH203      0.2448
     10  O2        22.0690   -0.9900   18.9430 O.2   203  INH203     -0.2702
     11  N1        20.9700    0.6590   17.7570 N.am  203  INH203     -0.3052
     12  C9        20.1730   -0.3620   16.9800 C.3   203  INH203      0.0618
     13  C10       18.6860    0.1940   16.8740 C.3   203  INH203     -0.0063
     14  C11       18.1480    0.6370   18.2120 C.ar  203  INH203     -0.0455
     15  C12       18.0940    2.0320   18.5210 C.ar  203  INH203     -0.0585
     16  C13       17.6770    2.4080   19.8380 C.ar  203  INH203     -0.0615
     17  C14       17.3240    1.4600   20.8120 C.ar  203  INH203     -0.0617
     18  C15       17.3750    0.1040   20.4720 C.ar  203  INH203     -0.0615
     19  C16       17.7970   -0.2950   19.2130 C.ar  203  INH203     -0.0585
     20  C17       20.8680   -0.5040   15.6030 C.3   203  INH203      0.1495
     21  O3        20.5210    0.5820   14.7460 O.3   203  INH203     -0.3807
     22  C18       20.3600   -1.7850   14.9420 C.2   203  INH203      0.2473
     23  O4        19.2990   -1.8640   14.2880 O.2   203  INH203     -0.2727
     24  N2        21.1050   -2.9230   15.1300 N.am  203  INH203     -0.2771
     25  C19       22.3900   -2.9470   15.9220 C.3   203  INH203      0.0624
     26  S1        22.7750   -4.7050   16.1440 S.3   203  INH203     -0.1331
     27  C20       21.8980   -5.1370   14.5960 C.3   203  INH203      0.0395
     28  C21       22.7450   -4.7600   13.3790 C.3   203  INH203     -0.0485
     29  C22       21.5620   -6.6380   14.5150 C.3   203  INH203     -0.0485
     30  C23       20.6350   -4.2260   14.6100 C.3   203  INH203      0.1171
     31  C24       19.4740   -4.7460   15.4830 C.2   203  INH203      0.2352
     32  O5        19.3600   -4.5020   16.7210 O.2   203  INH203     -0.2737
     33  N3        18.5680   -5.5610   14.7910 N.am  203  INH203     -0.3096
     34  C25       17.4260   -6.2060   15.4830 C.3   203  INH203      0.0371
     35  C26       16.1360   -5.9810   14.6820 C.ar  203  INH203     -0.0274
     36  C27       15.4800   -4.7310   14.6670 C.ar  203  INH203     -0.0458
     37  C28       14.2670   -4.6240   13.9790 C.ar  203  INH203     -0.0585
     38  C29       13.7360   -5.7470   13.2960 C.ar  203  INH203     -0.0615
     39  C30       14.3650   -6.9590   13.3090 C.ar  203  INH203     -0.0614
     40  C31       15.5770   -7.0730   14.0280 C.ar  203  INH203     -0.0568
     41  C32       16.0130   -3.5750   15.4200 C.3   203  INH203     -0.0394
     42  H1        26.0920    3.1750   21.1240 H     203  INH203      0.2921
     43  H2        24.1360    4.2530   21.5170 H     203  INH203      0.0654
     44  H3        21.7270    4.2500   21.0890 H     203  INH203      0.0619
     45  H4        20.6470    2.3030   19.9410 H     203  INH203      0.0625
     46  H5        25.9340    0.5990   19.2290 H     203  INH203      0.0279
     47  H6        24.8050    0.4640   17.8380 H     203  INH203      0.0279
     48  H7        24.6430   -0.6510   19.2370 H     203  INH203      0.0279
     49  H8        20.8340    1.6340   17.5840 H     203  INH203      0.1494
     50  H9        20.1680   -1.3340   17.4960 H     203  INH203      0.0532
     51  H10       18.0380   -0.6010   16.4770 H     203  INH203      0.0332
     52  H11       18.6770    1.0530   16.1860 H     203  INH203      0.0332
     53  H12       18.3600    2.7800   17.7830 H     203  INH203      0.0620
     54  H13       17.6320    3.4610   20.0920 H     203  INH203      0.0618
     55  H14       17.0190    1.7720   21.8040 H     203  INH203      0.0618
     56  H15       17.0810   -0.6430   21.2010 H     203  INH203      0.0618
     57  H16       17.8590   -1.3540   18.9900 H     203  INH203      0.0620
     58  H17       21.9590   -0.5450   15.7370 H     203  INH203      0.0709
     59  H18       19.5770    0.6100   14.6360 H     203  INH203      0.2105
     60  H19       22.2520   -2.4560   16.8960 H     203  INH203      0.0580
     61  H20       23.1950   -2.4420   15.3680 H     203  INH203      0.0580
     62  H21       22.2040   -5.0260   12.4590 H     203  INH203      0.0244
     63  H22       23.7000   -5.3050   13.4130 H     203  INH203      0.0244
     64  H23       22.9400   -3.6780   13.3890 H     203  INH203      0.0244
     65  H24       21.0380   -6.8460   13.5710 H     203  INH203      0.0244
     66  H25       20.9170   -6.9160   15.3610 H     203  INH203      0.0244
     67  H26       22.4920   -7.2250   14.5550 H     203  INH203      0.0244
     68  H27       20.2650   -4.1100   13.5810 H     203  INH203      0.0611
     69  H28       18.6940   -5.7110   13.8100 H     203  INH203      0.1491
     70  H29       17.3130   -5.7690   16.4860 H     203  INH203      0.0512
     71  H30       17.6160   -7.2860   15.5730 H     203  INH203      0.0512
     72  H31       13.7320   -3.6810   13.9680 H     203  INH203      0.0620
     73  H32       12.8060   -5.6410   12.7490 H     203  INH203      0.0618
     74  H33       13.9470   -7.8100   12.7830 H     203  INH203      0.0618
     75  H34       16.0810   -8.0320   14.0700 H     203  INH203      0.0621
     76  H35       16.9680   -3.8520   15.8900 H     203  INH203      0.0278
     77  H36       15.2930   -3.2810   16.1980 H     203  INH203      0.0278
     78  H37       16.1740   -2.7320   14.7320 H     203  INH203      0.0278
@<TRIPOS>BOND
     1     1     7   ar
     2     1     3   ar
     3     1     2    1
     4     2    42    1
     5     3    43    1
     6     3     4   ar
     7     4    44    1
     8     4     5   ar
     9     5    45    1
    10     5     6   ar
    11     6     9    1
    12     6     7   ar
    13     7     8    1
    14     8    48    1
    15     8    47    1
    16     8    46    1
    17     9    11   am
    18     9    10    2
    19    11    49    1
    20    11    12    1
    21    12    50    1
    22    12    20    1
    23    12    13    1
    24    13    52    1
    25    13    51    1
    26    13    14    1
    27    14    19   ar
    28    14    15   ar
    29    15    53    1
    30    15    16   ar
    31    16    54    1
    32    16    17   ar
    33    17    55    1
    34    17    18   ar
    35    18    56    1
    36    18    19   ar
    37    19    57    1
    38    20    58    1
    39    20    22    1
    40    20    21    1
    41    21    59    1
    42    22    24   am
    43    22    23    2
    44    24    30    1
    45    24    25    1
    46    25    61    1
    47    25    60    1
    48    25    26    1
    49    26    27    1
    50    27    30    1
    51    27    29    1
    52    27    28    1
    53    28    64    1
    54    28    63    1
    55    28    62    1
    56    29    67    1
    57    29    66    1
    58    29    65    1
    59    30    68    1
    60    30    31    1
    61    31    33   am
    62    31    32    2
    63    33    69    1
    64    33    34    1
    65    34    71    1
    66    34    70    1
    67    34    35    1
    68    35    40   ar
    69    35    36   ar
    70    36    41    1
    71    36    37   ar
    72    37    72    1
    73    37    38   ar
    74    38    73    1
    75    38    39   ar
    76    39    74    1
    77    39    40   ar
    78    40    75    1
    79    41    78    1
    80    41    77    1
    81    41    76    1
