@<TRIPOS>MOLECULE
/tmp/ewbell/vina_1kzk_1kzk_lig/vina/vina1.pdbqt
 46 50 0 0 0
SMALL
GASTEIGER

@<TRIPOS>ATOM
      1  C17       19.0730   -0.4520   17.1020 C.3   203  INH203      0.2330
      2  C9        19.2620    0.2480   18.4710 C.3   203  INH203      0.1250
      3  N1        20.6970    0.7180   18.5150 N.3   203  INH203     -0.3620
      4  C8        21.6550   -0.1070   18.9050 C.3   203  INH203      0.1470
      5  H8        20.9240    1.6540   18.2490 H     203  INH203      0.1620
      6  C5        23.0280    0.4700   18.9920 C.ar  203  INH203      0.0230
      7  C4        24.1010   -0.2900   18.4560 C.ar  203  INH203      0.0160
      8  C3        25.4350    0.1980   18.5580 C.ar  203  INH203      0.0040
      9  C2        25.6900    1.4440   19.0540 C.ar  203  INH203      0.0370
     10  C1        24.6100    2.2500   19.5240 C.ar  203  INH203      0.0720
     11  C6        23.2640    1.7580   19.5590 C.ar  203  INH203     -0.0140
     12  C7        22.1900    2.5990   20.2400 C.3   203  INH203      0.0520
     13  O1        24.8560    3.4610   20.1010 O.3   203  INH203     -0.3600
     14  H1        24.0920    3.7370   20.5950 H     203  INH203      0.2170
     15  O2        21.4260   -1.3410   19.2650 O.3   203  INH203     -0.3460
     16  H2        20.5640   -1.6080   19.5620 H     203  INH203      0.2190
     17  C10       18.3460    1.5380   18.6430 C.3   203  INH203      0.0660
     18  C11       18.0360    1.8250   20.0910 C.ar  203  INH203     -0.0560
     19  C16       18.3900    0.9210   21.1170 C.ar  203  INH203      0.0070
     20  C15       18.1790    1.2110   22.4560 C.ar  203  INH203      0.0010
     21  C14       17.6410    2.4430   22.8440 C.ar  203  INH203      0.0000
     22  C13       17.2890    3.3640   21.8450 C.ar  203  INH203      0.0010
     23  C12       17.4720    3.0890   20.4510 C.ar  203  INH203      0.0070
     24  C18       18.4370   -1.8200   17.3500 C.2   203  INH203      0.2520
     25  N2        19.0140   -2.8990   16.7280 N.am  203  INH203     -0.3270
     26  C23       20.1760   -2.7200   15.8310 C.3   203  INH203      0.1970
     27  C19       18.4770   -4.3050   16.8480 C.3   203  INH203      0.1930
     28  C20       20.8140   -4.1350   15.7030 C.3   203  INH203      0.0240
     29  C24       19.7140   -2.0970   14.4980 C.2   203  INH203      0.2420
     30  S1        19.3740   -5.2620   15.5950 S.3   203  INH203     -0.1720
     31  C22       21.7520   -4.2700   14.4890 C.3   203  INH203      0.0280
     32  C21       21.6160   -4.4140   16.9740 C.3   203  INH203      0.0280
     33  C26       17.7900   -4.8010   14.4900 C.3   203  INH203      0.0580
     34  C25       17.5900   -3.3580   14.9720 C.3   203  INH203      0.1510
     35  C31       18.6470   -5.0160   13.4170 C.3   203  INH203     -0.0010
     36  C27       17.1970   -5.8950   15.1560 C.2   203  INH203     -0.0600
     37  N3        18.4000   -2.4320   14.1440 N.am  203  INH203     -0.3570
     38  H28       18.0000   -2.0390   13.3150 H     203  INH203      0.1620
     39  C30       18.9220   -6.3190   12.9440 C.2   203  INH203     -0.0020
     40  C29       18.3430   -7.3740   13.5900 C.2   203  INH203      0.0000
     41  C28       17.4890   -7.1870   14.7070 C.2   203  INH203      0.0040
     42  C32       16.3450   -5.6970   16.3490 C.3   203  INH203      0.0450
     43  O5        20.4280   -1.3200   13.7980 O.2   203  INH203     -0.2710
     44  O4        17.4650   -2.0140   18.1100 O.2   203  INH203     -0.2700
     45  O3        18.1780    0.2880   16.2740 O.3   203  INH203     -0.3840
     46  H18       17.9560   -0.2280   15.5060 H     203  INH203      0.2100
@<TRIPOS>BOND
     1    39    35    1
     2    39    40    2
     3    38    37    1
     4    35    33    1
     5    40    41    1
     6    43    29    2
     7    37    29   am
     8    37    34    1
     9    31    28    1
    10    33    34    1
    11    33    36    1
    12    33    30    1
    13    29    26    1
    14    41    36    2
    15    36    42    1
    16    46    45    1
    17    30    28    1
    18    30    27    1
    19    28    26    1
    20    28    32    1
    21    26    25    1
    22    45     1    1
    23    25    27    1
    24    25    24   am
    25     1    24    1
    26     1     2    1
    27    24    44    2
    28     5     3    1
    29     7     8   ar
    30     7     6   ar
    31     2     3    1
    32     2    17    1
    33     3     4    1
    34     8     9   ar
    35    17    18    1
    36     4     6    1
    37     4    15    1
    38     6    11   ar
    39     9    10   ar
    40    15    16    1
    41    10    11   ar
    42    10    13    1
    43    11    12    1
    44    18    23   ar
    45    18    19   ar
    46    13    14    1
    47    23    22   ar
    48    19    20   ar
    49    22    21   ar
    50    20    21   ar
