@<TRIPOS>MOLECULE
/tmp/ewbell/vina_1kzk_1kzk_lig/vina/vina5.pdbqt
 46 50 0 0 0
SMALL
GASTEIGER

@<TRIPOS>ATOM
      1  C17       32.9920   11.4290   19.1500 C.3   203  INH203      0.2330
      2  C9        31.5140   11.2580   19.5830 C.3   203  INH203      0.1250
      3  N1        30.6730   11.8000   18.4510 N.3   203  INH203     -0.3620
      4  C8        29.6170   12.5540   18.7090 C.3   203  INH203      0.1470
      5  H8        30.9150   11.5880   17.5050 H     203  INH203      0.1620
      6  C5        28.8030   12.9760   17.5320 C.ar  203  INH203      0.0230
      7  C4        29.1980   14.1500   16.8400 C.ar  203  INH203      0.0160
      8  C3        28.4250   14.6190   15.7400 C.ar  203  INH203      0.0040
      9  C2        27.3760   13.8880   15.2590 C.ar  203  INH203      0.0370
     10  C1        27.0170   12.6650   15.8980 C.ar  203  INH203      0.0720
     11  C6        27.6840   12.2120   17.0840 C.ar  203  INH203     -0.0140
     12  C7        27.1330   10.9950   17.8190 C.3   203  INH203      0.0520
     13  O1        25.9210   11.9680   15.4840 O.3   203  INH203     -0.3600
     14  H1        26.1930   11.2680   14.9000 H     203  INH203      0.2170
     15  O2        29.2480   12.8680   19.9220 O.3   203  INH203     -0.3460
     16  H2        29.6370   13.6100   20.3710 H     203  INH203      0.2190
     17  C10       31.0960    9.7360   19.7850 C.3   203  INH203      0.0660
     18  C11       30.9170    9.3850   21.2410 C.ar  203  INH203     -0.0560
     19  C16       31.2590    8.1090   21.7410 C.ar  203  INH203      0.0070
     20  C15       31.1710    7.8020   23.0910 C.ar  203  INH203      0.0010
     21  C14       30.7790    8.7720   24.0200 C.ar  203  INH203      0.0000
     22  C13       30.4430   10.0510   23.5500 C.ar  203  INH203      0.0010
     23  C12       30.4990   10.3960   22.1610 C.ar  203  INH203      0.0070
     24  C18       33.8010   11.8530   20.3750 C.2   203  INH203      0.2520
     25  N2        34.5890   12.9700   20.2480 N.am  203  INH203     -0.3270
     26  C23       34.6650   13.6960   18.9610 C.3   203  INH203      0.1970
     27  C19       35.4710   13.4890   21.3580 C.3   203  INH203      0.1930
     28  C20       35.2410   15.0980   19.3190 C.3   203  INH203      0.0240
     29  C24       35.5110   12.8880   17.9570 C.2   203  INH203      0.2420
     30  S1        36.5230   14.7430   20.5780 S.3   203  INH203     -0.1720
     31  C22       35.8110   15.8480   18.1000 C.3   203  INH203      0.0280
     32  C21       34.1150   15.9360   19.9260 C.3   203  INH203      0.0280
     33  C26       37.7590   13.2020   20.3780 C.3   203  INH203      0.0580
     34  C25       36.7230   12.1250   20.0240 C.3   203  INH203      0.1510
     35  C31       38.3030   13.9480   19.3380 C.3   203  INH203     -0.0010
     36  C27       38.0980   13.4950   21.7160 C.2   203  INH203     -0.0600
     37  N3        36.5020   12.1000   18.5580 N.am  203  INH203     -0.3570
     38  H28       37.0730   11.5090   17.9870 H     203  INH203      0.1620
     39  C30       39.2260   14.9900   19.5840 C.2   203  INH203     -0.0020
     40  C29       39.5530   15.2670   20.8810 C.2   203  INH203      0.0000
     41  C28       38.9910   14.5430   21.9630 C.2   203  INH203      0.0040
     42  C32       37.4730   12.7690   22.8430 C.3   203  INH203      0.0450
     43  O5        35.3140   12.8920   16.7050 O.2   203  INH203     -0.2710
     44  O4        33.7530   11.2750   21.4820 O.2   203  INH203     -0.2700
     45  O3        33.5320   10.1910   18.6920 O.3   203  INH203     -0.3840
     46  H18       34.4440   10.3130   18.4520 H     203  INH203      0.2100
@<TRIPOS>BOND
     1    14    13    1
     2     9     8   ar
     3     9    10   ar
     4    13    10    1
     5     8     7   ar
     6    10    11   ar
     7    43    29    2
     8     7     6   ar
     9    11     6   ar
    10    11    12    1
    11     5     3    1
    12     6     4    1
    13    29    37   am
    14    29    26    1
    15    38    37    1
    16    31    28    1
    17     3     4    1
    18     3     2    1
    19    46    45    1
    20    37    34    1
    21    45     1    1
    22     4    15    1
    23    26    28    1
    24    26    25    1
    25     1     2    1
    26     1    24    1
    27    28    32    1
    28    28    30    1
    29    35    39    1
    30    35    33    1
    31     2    17    1
    32    39    40    2
    33    17    18    1
    34    15    16    1
    35    34    33    1
    36    25    24   am
    37    25    27    1
    38    24    44    2
    39    33    30    1
    40    33    36    1
    41    30    27    1
    42    40    41    1
    43    18    19   ar
    44    18    23   ar
    45    36    41    2
    46    36    42    1
    47    19    20   ar
    48    23    22   ar
    49    20    21   ar
    50    22    21   ar
