@<TRIPOS>MOLECULE
/tmp/ewbell/vina_1kzk_1kzk_lig/vina/vina2.pdbqt
 46 50 0 0 0
SMALL
GASTEIGER

@<TRIPOS>ATOM
      1  C17       20.8410   -0.2590   15.8130 C.3   203  INH203      0.2330
      2  C9        21.5920    0.2320   17.0770 C.3   203  INH203      0.1250
      3  N1        20.5330    0.5330   18.1120 N.3   203  INH203     -0.3620
      4  C8        20.6420    1.6020   18.8830 C.3   203  INH203      0.1470
      5  H8        19.7490   -0.0780   18.2150 H     203  INH203      0.1620
      6  C5        19.5920    1.7730   19.9270 C.ar  203  INH203      0.0230
      7  C4        18.3890    1.0330   19.7850 C.ar  203  INH203      0.0160
      8  C3        17.3380    1.1980   20.7320 C.ar  203  INH203      0.0040
      9  C2        17.5140    1.9670   21.8470 C.ar  203  INH203      0.0370
     10  C1        18.7490    2.6540   22.0420 C.ar  203  INH203      0.0720
     11  C6        19.7910    2.6210   21.0580 C.ar  203  INH203     -0.0140
     12  C7        21.0070    3.5220   21.2440 C.3   203  INH203      0.0520
     13  O1        18.9090    3.4930   23.1050 O.3   203  INH203     -0.3600
     14  H1        18.1980    3.3600   23.7230 H     203  INH203      0.2170
     15  O2        21.6410    2.4390   18.7990 O.3   203  INH203     -0.3460
     16  H2        22.3910    2.2460   18.2480 H     203  INH203      0.2190
     17  C10       22.5500   -0.8740   17.7010 C.3   203  INH203      0.0660
     18  C11       23.5240   -0.2870   18.6930 C.ar  203  INH203     -0.0560
     19  C16       24.6730    0.4190   18.2730 C.ar  203  INH203      0.0070
     20  C15       25.5310    1.0270   19.1760 C.ar  203  INH203      0.0010
     21  C14       25.2610    1.0000   20.5480 C.ar  203  INH203      0.0000
     22  C13       24.1200    0.3140   20.9920 C.ar  203  INH203      0.0010
     23  C12       23.2250   -0.3460   20.0900 C.ar  203  INH203      0.0070
     24  C18       19.5010   -0.8480   16.2530 C.2   203  INH203      0.2520
     25  N2        19.4300   -2.2130   16.3780 N.am  203  INH203     -0.3270
     26  C23       20.6000   -3.0620   16.0600 C.3   203  INH203      0.1970
     27  C19       18.1660   -2.9420   16.7690 C.3   203  INH203      0.1930
     28  C20       20.3070   -4.4300   16.7430 C.3   203  INH203      0.0240
     29  C24       20.7910   -3.1310   14.5310 C.2   203  INH203      0.2420
     30  S1        18.5170   -4.6940   16.4610 S.3   203  INH203     -0.1720
     31  C22       21.1630   -5.5830   16.1830 C.3   203  INH203      0.0280
     32  C21       20.5970   -4.2890   18.2380 C.3   203  INH203      0.0280
     33  C26       17.6830   -4.2810   14.7070 C.3   203  INH203      0.0580
     34  C25       18.2880   -2.8870   14.4910 C.3   203  INH203      0.1510
     35  C31       18.4060   -5.3810   14.2580 C.3   203  INH203     -0.0010
     36  C27       16.4730   -4.4640   15.4110 C.2   203  INH203     -0.0600
     37  N3        19.5980   -3.0070   13.8060 N.am  203  INH203     -0.3570
     38  H28       19.6300   -2.9980   12.8060 H     203  INH203      0.1620
     39  C30       17.9400   -6.7000   14.4620 C.2   203  INH203     -0.0020
     40  C29       16.7680   -6.8720   15.1400 C.2   203  INH203      0.0000
     41  C28       16.0250   -5.7700   15.6360 C.2   203  INH203      0.0040
     42  C32       15.7270   -3.3150   15.9670 C.3   203  INH203      0.0450
     43  O5        21.9190   -3.2480   13.9660 O.2   203  INH203     -0.2710
     44  O4        18.4970   -0.1660   16.5450 O.2   203  INH203     -0.2700
     45  O3        20.5580    0.8310   14.9370 O.3   203  INH203     -0.3840
     46  H18       20.1080    0.5070   14.1650 H     203  INH203      0.2100
@<TRIPOS>BOND
     1    38    37    1
     2    37    34    1
     3    37    29   am
     4    43    29    2
     5    46    45    1
     6    35    39    1
     7    35    33    1
     8    39    40    2
     9    34    33    1
    10    29    26    1
    11    33    36    1
    12    33    30    1
    13    45     1    1
    14    40    41    1
    15    36    41    2
    16    36    42    1
    17     1    24    1
    18     1     2    1
    19    26    25    1
    20    26    28    1
    21    31    28    1
    22    24    25   am
    23    24    44    2
    24    25    27    1
    25    30    28    1
    26    30    27    1
    27    28    32    1
    28     2    17    1
    29     2     3    1
    30    17    18    1
    31     3     5    1
    32     3     4    1
    33    16    15    1
    34    19    18   ar
    35    19    20   ar
    36    18    23   ar
    37    15     4    1
    38     4     6    1
    39    20    21   ar
    40     7     6   ar
    41     7     8   ar
    42     6    11   ar
    43    23    22   ar
    44    21    22   ar
    45     8     9   ar
    46    11    12    1
    47    11    10   ar
    48     9    10   ar
    49    10    13    1
    50    13    14    1
