@<TRIPOS>MOLECULE
/tmp/ewbell/vina_1kzk_1kzk_lig/vina/vina3.pdbqt
 46 50 0 0 0
SMALL
GASTEIGER

@<TRIPOS>ATOM
      1  C17       18.9020    0.4330   17.0080 C.3   203  INH203      0.2330
      2  C9        18.8870    0.6310   18.5440 C.3   203  INH203      0.1250
      3  N1        20.1450    1.3930   18.8880 N.3   203  INH203     -0.3620
      4  C8        21.2010    0.7540   19.3630 C.3   203  INH203      0.1470
      5  H8        20.1790    2.3840   18.7570 H     203  INH203      0.1620
      6  C5        22.3670    1.6000   19.7480 C.ar  203  INH203      0.0230
      7  C4        22.1230    2.7290   20.5720 C.ar  203  INH203      0.0160
      8  C3        23.1980    3.5940   20.9280 C.ar  203  INH203      0.0040
      9  C2        24.4850    3.2860   20.5900 C.ar  203  INH203      0.0370
     10  C1        24.7530    2.1110   19.8280 C.ar  203  INH203      0.0720
     11  C6        23.6950    1.2740   19.3390 C.ar  203  INH203     -0.0140
     12  C7        24.0380    0.1390   18.3810 C.3   203  INH203      0.0520
     13  O1        26.0210    1.8350   19.4110 O.3   203  INH203     -0.3600
     14  H1        26.5700    2.6010   19.5390 H     203  INH203      0.2170
     15  O2        21.2210   -0.5370   19.5570 O.3   203  INH203     -0.3460
     16  H2        20.4800   -1.0770   19.3070 H     203  INH203      0.2190
     17  C10       17.6590    1.5110   19.0470 C.3   203  INH203      0.0660
     18  C11       17.7720    1.8590   20.5100 C.ar  203  INH203     -0.0560
     19  C16       17.4400    3.1440   20.9930 C.ar  203  INH203      0.0070
     20  C15       17.4660    3.4500   22.3450 C.ar  203  INH203      0.0010
     21  C14       17.7850    2.4710   23.2920 C.ar  203  INH203      0.0000
     22  C13       18.1100    1.1830   22.8410 C.ar  203  INH203      0.0010
     23  C12       18.1160    0.8380   21.4510 C.ar  203  INH203      0.0070
     24  C18       18.2740   -0.9250   16.6960 C.2   203  INH203      0.2520
     25  N2        19.1150   -2.0100   16.6620 N.am  203  INH203     -0.3270
     26  C23       20.5690   -1.8440   16.8830 C.3   203  INH203      0.1970
     27  C19       18.6470   -3.4070   16.3330 C.3   203  INH203      0.1930
     28  C20       21.0930   -3.2690   17.2280 C.3   203  INH203      0.0240
     29  C24       21.2140   -1.2030   15.6370 C.2   203  INH203      0.2420
     30  S1        20.1660   -4.3700   16.0950 S.3   203  INH203     -0.1720
     31  C22       22.6180   -3.4110   17.0620 C.3   203  INH203      0.0280
     32  C21       20.7290   -3.5720   18.6820 C.3   203  INH203      0.0280
     33  C26       19.8700   -3.8720   14.1950 C.3   203  INH203      0.0580
     34  C25       19.3930   -2.4290   14.4110 C.3   203  INH203      0.1510
     35  C31       21.2370   -4.0940   14.0670 C.3   203  INH203     -0.0010
     36  C27       18.9710   -4.9610   14.2090 C.2   203  INH203     -0.0600
     37  N3        20.5580   -1.5120   14.4390 N.am  203  INH203     -0.3570
     38  H28       20.8820   -1.1060   13.5830 H     203  INH203      0.1620
     39  C30       21.7590   -5.3980   13.9140 C.2   203  INH203     -0.0020
     40  C29       20.8860   -6.4470   13.9240 C.2   203  INH203      0.0000
     41  C28       19.4900   -6.2540   14.0850 C.2   203  INH203      0.0040
     42  C32       17.5220   -4.7570   14.4240 C.3   203  INH203      0.0450
     43  O5        22.2190   -0.4330   15.6820 O.2   203  INH203     -0.2710
     44  O4        17.0510   -1.1080   16.5180 O.2   203  INH203     -0.2700
     45  O3        18.1090    1.4260   16.3600 O.3   203  INH203     -0.3840
     46  H18       17.1880    1.2530   16.5250 H     203  INH203      0.2100
@<TRIPOS>BOND
     1    38    37    1
     2    39    40    2
     3    39    35    1
     4    40    41    1
     5    35    33    1
     6    41    36    2
     7    33    36    1
     8    33    34    1
     9    33    30    1
    10    36    42    1
    11    34    37    1
    12    37    29   am
    13    29    43    2
    14    29    26    1
    15    30    27    1
    16    30    28    1
    17    27    25    1
    18    45    46    1
    19    45     1    1
    20    44    24    2
    21    25    24   am
    22    25    26    1
    23    24     1    1
    24    26    28    1
    25     1     2    1
    26    31    28    1
    27    28    32    1
    28    12    11    1
    29     2     3    1
    30     2    17    1
    31     5     3    1
    32     3     4    1
    33    17    18    1
    34    16    15    1
    35    11     6   ar
    36    11    10   ar
    37     4    15    1
    38     4     6    1
    39    13    14    1
    40    13    10    1
    41     6     7   ar
    42    10     9   ar
    43    18    19   ar
    44    18    23   ar
    45     7     8   ar
    46     9     8   ar
    47    19    20   ar
    48    23    22   ar
    49    20    21   ar
    50    22    21   ar
