@<TRIPOS>MOLECULE
/tmp/ewbell/vina_1kzk_1kzk_lig/vina/vina4.pdbqt
 46 50 0 0 0
SMALL
GASTEIGER

@<TRIPOS>ATOM
      1  C17       18.6270    0.7940   18.6370 C.3   203  INH203      0.2330
      2  C9        18.9720    0.9050   20.1430 C.3   203  INH203      0.1250
      3  N1        20.4690    0.7390   20.2510 N.3   203  INH203     -0.3620
      4  C8        21.2760    1.4590   19.4890 C.3   203  INH203      0.1470
      5  H8        20.8520    0.0820   20.9000 H     203  INH203      0.1620
      6  C5        22.7330    1.1680   19.6090 C.ar  203  INH203      0.0230
      7  C4        23.2550    0.0750   18.8690 C.ar  203  INH203      0.0160
      8  C3        24.6310   -0.2720   18.9890 C.ar  203  INH203      0.0040
      9  C2        25.4890    0.5080   19.7110 C.ar  203  INH203      0.0370
     10  C1        24.9920    1.6560   20.3960 C.ar  203  INH203      0.0720
     11  C6        23.5940    1.9770   20.4110 C.ar  203  INH203     -0.0140
     12  C7        23.1080    3.1080   21.3100 C.3   203  INH203      0.0520
     13  O1        25.8180    2.3950   21.1900 O.3   203  INH203     -0.3600
     14  H1        26.2660    3.0460   20.6620 H     203  INH203      0.2170
     15  O2        20.8400    2.3330   18.6220 O.3   203  INH203     -0.3460
     16  H2        21.0310    3.2580   18.7270 H     203  INH203      0.2190
     17  C10       18.6170    2.3290   20.7600 C.3   203  INH203      0.0660
     18  C11       18.6000    2.3050   22.2690 C.ar  203  INH203     -0.0560
     19  C16       18.0900    1.2000   22.9860 C.ar  203  INH203      0.0070
     20  C15       18.1410    1.1370   24.3700 C.ar  203  INH203      0.0010
     21  C14       18.7460    2.1580   25.1100 C.ar  203  INH203      0.0000
     22  C13       19.2700    3.2640   24.4220 C.ar  203  INH203      0.0010
     23  C12       19.2140    3.3730   22.9950 C.ar  203  INH203      0.0070
     24  C18       17.9580   -0.5600   18.4000 C.2   203  INH203      0.2520
     25  N2        18.7510   -1.5740   17.9220 N.am  203  INH203     -0.3270
     26  C23       20.1800   -1.3340   17.6210 C.3   203  INH203      0.1970
     27  C19       18.2260   -2.9530   17.6060 C.3   203  INH203      0.1930
     28  C20       20.8260   -2.7500   17.5630 C.3   203  INH203      0.0240
     29  C24       20.3070   -0.5140   16.3210 C.2   203  INH203      0.2420
     30  S1        19.5710   -3.7760   16.7100 S.3   203  INH203     -0.1720
     31  C22       22.1850   -2.7680   16.8390 C.3   203  INH203      0.0280
     32  C21       21.0300   -3.2400   18.9970 C.3   203  INH203      0.0280
     33  C26       18.5850   -3.0890   15.1300 C.3   203  INH203      0.0580
     34  C25       18.1900   -1.7150   15.6900 C.3   203  INH203      0.1510
     35  C31       19.8130   -3.2000   14.4860 C.3   203  INH203     -0.0010
     36  C27       17.7790   -4.2310   15.3260 C.2   203  INH203     -0.0600
     37  N3        19.2620   -0.7300   15.4120 N.am  203  INH203     -0.3570
     38  H28       19.2390   -0.2080   14.5580 H     203  INH203      0.1620
     39  C30       20.2720   -4.4400   13.9860 C.2   203  INH203     -0.0020
     40  C29       19.4870   -5.5410   14.1750 C.2   203  INH203      0.0000
     41  C28       18.2440   -5.4630   14.8550 C.2   203  INH203      0.0040
     42  C32       16.5070   -4.1520   16.0760 C.3   203  INH203      0.0450
     43  O5        21.2410    0.3130   16.0980 O.2   203  INH203     -0.2710
     44  O4        16.7600   -0.8050   18.6550 O.2   203  INH203     -0.2700
     45  O3        17.6920    1.8010   18.2560 O.3   203  INH203     -0.3840
     46  H18       17.9740    2.6420   18.5980 H     203  INH203      0.2100
@<TRIPOS>BOND
     1    39    40    2
     2    39    35    1
     3    40    41    1
     4    35    33    1
     5    38    37    1
     6    41    36    2
     7    33    36    1
     8    33    34    1
     9    33    30    1
    10    36    42    1
    11    37    34    1
    12    37    29   am
    13    43    29    2
    14    29    26    1
    15    30    28    1
    16    30    27    1
    17    31    28    1
    18    28    26    1
    19    28    32    1
    20    27    25    1
    21    26    25    1
    22    25    24   am
    23    45    46    1
    24    45     1    1
    25    24     1    1
    26    24    44    2
    27    15    16    1
    28    15     4    1
    29     1     2    1
    30     7     8   ar
    31     7     6   ar
    32     8     9   ar
    33     4     6    1
    34     4     3    1
    35     6    11   ar
    36     9    10   ar
    37     2     3    1
    38     2    17    1
    39     3     5    1
    40    10    11   ar
    41    10    13    1
    42    11    12    1
    43    14    13    1
    44    17    18    1
    45    18    19   ar
    46    18    23   ar
    47    19    20   ar
    48    23    22   ar
    49    20    21   ar
    50    22    21   ar
