@<TRIPOS>MOLECULE
./ligand/1jgl_lig.pdb
 44 47 0 0 0
SMALL
GASTEIGER

@<TRIPOS>ATOM
      1  C1        43.1480   25.8150   67.9760 C.ar  430  INH430     -0.0546
      2  C2        44.5470   25.7240   68.2820 C.ar  430  INH430     -0.0199
      3  C3        45.3400   24.6720   67.7000 C.ar  430  INH430      0.1171
      4  O1        46.6790   24.5930   68.0030 O.3   430  INH430     -0.5068
      5  C4        44.7490   23.7110   66.8090 C.ar  430  INH430     -0.0167
      6  C5        43.3380   23.7840   66.4790 C.ar  430  INH430     -0.0405
      7  C6        42.7360   22.7450   65.5040 C.3   430  INH430     -0.0270
      8  C7        41.2140   22.9120   65.1790 C.3   430  INH430     -0.0454
      9  C8        40.7130   24.3810   65.2470 C.3   430  INH430     -0.0305
     10  C9        40.9720   24.9410   66.7220 C.3   430  INH430     -0.0125
     11  C10       42.5000   24.8610   67.0770 C.ar  430  INH430     -0.0406
     12  C11       40.4190   26.4050   66.7950 C.3   430  INH430     -0.0454
     13  C12       38.9070   26.5280   66.4270 C.3   430  INH430     -0.0445
     14  C13       38.6580   26.0230   64.9750 C.3   430  INH430     -0.0030
     15  C14       39.1610   24.5000   64.9040 C.3   430  INH430     -0.0298
     16  C15       38.6040   24.0730   63.5350 C.3   430  INH430     -0.0470
     17  C16       37.1110   24.5910   63.6240 C.3   430  INH430     -0.0261
     18  C17       37.1590   25.8400   64.5770 C.3   430  INH430      0.0609
     19  O2        36.5330   26.9730   63.9170 O.3   430  INH430     -0.3912
     20  C18       39.3540   27.0060   63.9250 C.3   430  INH430     -0.0569
     21  H1        42.5590   26.6080   68.4210 H     430  INH430      0.0622
     22  H2        45.0060   26.4450   68.9490 H     430  INH430      0.0654
     23  H3        46.9110   25.2950   68.6000 H     430  INH430      0.2921
     24  H4        45.3620   22.9260   66.3810 H     430  INH430      0.0657
     25  H5        42.8790   21.7470   65.9450 H     430  INH430      0.0313
     26  H6        43.2920   22.8100   64.5570 H     430  INH430      0.0313
     27  H7        40.6380   22.3160   65.9020 H     430  INH430      0.0271
     28  H8        41.0330   22.5310   64.1630 H     430  INH430      0.0271
     29  H9        41.2810   24.9830   64.5230 H     430  INH430      0.0310
     30  H10       40.4190   24.3210   67.4430 H     430  INH430      0.0352
     31  H11       40.9970   27.0290   66.0980 H     430  INH430      0.0271
     32  H12       40.5570   26.7770   67.8210 H     430  INH430      0.0271
     33  H13       38.6000   27.5820   66.5020 H     430  INH430      0.0272
     34  H14       38.3130   25.9230   67.1280 H     430  INH430      0.0272
     35  H15       38.6440   23.9050   65.6710 H     430  INH430      0.0310
     36  H16       38.6430   22.9810   63.4080 H     430  INH430      0.0269
     37  H17       39.1490   24.5570   62.7110 H     430  INH430      0.0269
     38  H18       36.4580   23.8120   64.0430 H     430  INH430      0.0290
     39  H19       36.7440   24.8810   62.6280 H     430  INH430      0.0290
     40  H20       36.5840   25.6280   65.4910 H     430  INH430      0.0599
     41  H21       35.6290   26.7630   63.7170 H     430  INH430      0.2098
     42  H22       40.4110   27.1420   64.1960 H     430  INH430      0.0236
     43  H23       38.8430   27.9800   63.9400 H     430  INH430      0.0236
     44  H24       39.2870   26.5720   62.9160 H     430  INH430      0.0236
@<TRIPOS>BOND
     1     1    21    1
     2     1    11   ar
     3     1     2   ar
     4     2    22    1
     5     2     3   ar
     6     3     5   ar
     7     3     4    1
     8     4    23    1
     9     5    24    1
    10     5     6   ar
    11     6    11   ar
    12     6     7    1
    13     7    26    1
    14     7    25    1
    15     7     8    1
    16     8    28    1
    17     8    27    1
    18     8     9    1
    19     9    29    1
    20     9    15    1
    21     9    10    1
    22    10    30    1
    23    10    12    1
    24    10    11    1
    25    12    32    1
    26    12    31    1
    27    12    13    1
    28    13    34    1
    29    13    33    1
    30    13    14    1
    31    14    20    1
    32    14    18    1
    33    14    15    1
    34    15    35    1
    35    15    16    1
    36    16    37    1
    37    16    36    1
    38    16    17    1
    39    17    39    1
    40    17    38    1
    41    17    18    1
    42    18    40    1
    43    18    19    1
    44    19    41    1
    45    20    44    1
    46    20    43    1
    47    20    42    1
