@<TRIPOS>MOLECULE
/tmp/ewbell/vina_1jgl_1jgl_lig/vina/vina3.pdbqt
 22 25 0 0 0
SMALL
GASTEIGER

@<TRIPOS>ATOM
      1  C1        39.6970   25.2870   66.3010 C.ar  430  INH430      0.0110
      2  C2        38.4030   25.8960   66.1840 C.ar  430  INH430      0.0370
      3  C3        37.5580   25.5730   65.0630 C.ar  430  INH430      0.0660
      4  C4        37.9930   24.6420   64.0580 C.ar  430  INH430      0.0440
      5  C5        39.2940   24.0080   64.1550 C.ar  430  INH430     -0.0490
      6  C6        39.7250   22.9970   63.0660 C.3   430  INH430      0.0390
      7  C7        41.1310   22.3380   63.2610 C.3   430  INH430      0.0100
      8  C8        41.5590   22.1950   64.7480 C.3   430  INH430     -0.0010
      9  C9        41.5940   23.6500   65.4100 C.3   430  INH430      0.0230
     10  C10       40.1850   24.3340   65.3040 C.ar  430  INH430     -0.0470
     11  C11       42.0740   23.5020   66.8940 C.3   430  INH430      0.0100
     12  C12       43.4640   22.8050   67.0420 C.3   430  INH430      0.0130
     13  C13       43.4200   21.3710   66.4350 C.3   430  INH430     -0.0140
     14  C14       42.9920   21.5150   64.8950 C.3   430  INH430      0.0010
     15  C15       43.2630   20.0890   64.3830 C.3   430  INH430      0.0080
     16  C16       44.7120   19.8150   64.9590 C.3   430  INH430      0.0330
     17  C17       44.8060   20.6690   66.2760 C.3   430  INH430      0.1260
     18  C18       42.4650   20.4350   67.3090 C.3   430  INH430      0.0180
     19  O1        36.3220   26.1660   64.9600 O.3   430  INH430     -0.3610
     20  H3        35.9900   26.3610   65.8290 H     430  INH430      0.2170
     21  O2        45.2160   19.8140   67.3760 O.3   430  INH430     -0.3950
     22  H21       44.8060   20.1110   68.1790 H     430  INH430      0.2100
@<TRIPOS>BOND
     1     6     7    1
     2     6     5    1
     3     7     8    1
     4     4     5   ar
     5     4     3   ar
     6     5    10   ar
     7    15    14    1
     8    15    16    1
     9     8    14    1
    10     8     9    1
    11    14    13    1
    12    16    17    1
    13    19     3    1
    14    19    20    1
    15     3     2   ar
    16    10     9    1
    17    10     1   ar
    18     9    11    1
    19     2     1   ar
    20    17    13    1
    21    17    21    1
    22    13    12    1
    23    13    18    1
    24    11    12    1
    25    21    22    1
