@<TRIPOS>MOLECULE
/tmp/ewbell/vina_1jgl_1jgl_lig/vina/vina4.pdbqt
 22 25 0 0 0
SMALL
GASTEIGER

@<TRIPOS>ATOM
      1  C1        43.8210   21.7260   65.4170 C.ar  430  INH430      0.0110
      2  C2        44.9860   21.0910   64.8710 C.ar  430  INH430      0.0370
      3  C3        44.9550   20.5690   63.5290 C.ar  430  INH430      0.0660
      4  C4        43.7700   20.6800   62.7230 C.ar  430  INH430      0.0440
      5  C5        42.5800   21.3230   63.2490 C.ar  430  INH430     -0.0490
      6  C6        41.3260   21.4420   62.3500 C.3   430  INH430      0.0390
      7  C7        40.0970   22.1740   62.9840 C.3   430  INH430      0.0100
      8  C8        40.4780   23.2560   64.0310 C.3   430  INH430     -0.0010
      9  C9        41.3040   22.5580   65.2090 C.3   430  INH430      0.0230
     10  C10       42.5910   21.8630   64.6370 C.ar  430  INH430     -0.0470
     11  C11       41.6410   23.6470   66.2840 C.3   430  INH430      0.0100
     12  C12       40.3870   24.3760   66.8600 C.3   430  INH430      0.0130
     13  C13       39.6040   25.0930   65.7200 C.3   430  INH430     -0.0140
     14  C14       39.1950   23.9760   64.6430 C.3   430  INH430      0.0010
     15  C15       38.2180   24.7700   63.7580 C.3   430  INH430      0.0080
     16  C16       37.2870   25.4490   64.8420 C.3   430  INH430      0.0330
     17  C17       38.1920   25.6320   66.1140 C.3   430  INH430      0.1260
     18  C18       40.4720   26.3010   65.1350 C.3   430  INH430      0.0180
     19  O1        46.0760   19.9590   63.0180 O.3   430  INH430     -0.3610
     20  H3        46.1210   19.0630   63.3320 H     430  INH430      0.2170
     21  O2        38.1380   27.0170   66.5480 O.3   430  INH430     -0.3950
     22  H21       37.6730   27.5340   65.9010 H     430  INH430      0.2100
@<TRIPOS>BOND
     1     6     7    1
     2     6     5    1
     3     4     5   ar
     4     4     3   ar
     5     7     8    1
     6    19    20    1
     7    19     3    1
     8     5    10   ar
     9     3     2   ar
    10    15    14    1
    11    15    16    1
    12     8    14    1
    13     8     9    1
    14    10     9    1
    15    10     1   ar
    16    14    13    1
    17    16    17    1
    18     2     1   ar
    19    18    13    1
    20     9    11    1
    21    13    17    1
    22    13    12    1
    23    22    21    1
    24    17    21    1
    25    11    12    1
