@<TRIPOS>MOLECULE
/tmp/ewbell/vina_1jgl_1jgl_lig/vina/vina2.pdbqt
 22 25 0 0 0
SMALL
GASTEIGER

@<TRIPOS>ATOM
      1  C1        40.3070   20.7680   62.6240 C.ar  430  INH430      0.0110
      2  C2        40.3290   19.3560   62.3700 C.ar  430  INH430      0.0370
      3  C3        41.1630   18.4970   63.1700 C.ar  430  INH430      0.0660
      4  C4        41.9740   19.0360   64.2280 C.ar  430  INH430      0.0440
      5  C5        41.9650   20.4590   64.5100 C.ar  430  INH430     -0.0490
      6  C6        42.8360   21.0060   65.6660 C.3   430  INH430      0.0390
      7  C7        42.7470   22.5470   65.9210 C.3   430  INH430      0.0100
      8  C8        41.3750   23.1700   65.5430 C.3   430  INH430     -0.0010
      9  C9        41.1040   22.9060   63.9890 C.3   430  INH430      0.0230
     10  C10       41.1140   21.3640   63.6870 C.ar  430  INH430     -0.0470
     11  C11       39.7430   23.5790   63.6070 C.3   430  INH430      0.0100
     12  C12       39.6870   25.1090   63.9130 C.3   430  INH430      0.0130
     13  C13       39.9080   25.3680   65.4330 C.3   430  INH430     -0.0140
     14  C14       41.3320   24.7380   65.8250 C.3   430  INH430      0.0010
     15  C15       41.5220   25.3070   67.2410 C.3   430  INH430      0.0080
     16  C16       41.1720   26.8350   67.0200 C.3   430  INH430      0.0330
     17  C17       40.1430   26.8590   65.8310 C.3   430  INH430      0.1260
     18  C18       38.6720   24.7990   66.2710 C.3   430  INH430      0.0180
     19  O1        41.1790   17.1460   62.9150 O.3   430  INH430     -0.3610
     20  H3        41.5210   16.6840   63.6720 H     430  INH430      0.2170
     21  O2        38.9620   27.6050   66.2320 O.3   430  INH430     -0.3950
     22  H21       38.2700   26.9990   66.4680 H     430  INH430      0.2100
@<TRIPOS>BOND
     1     2     1   ar
     2     2     3   ar
     3     1    10   ar
     4    19     3    1
     5    19    20    1
     6     3     4   ar
     7    11    12    1
     8    11     9    1
     9    10     9    1
    10    10     5   ar
    11    12    13    1
    12     9     8    1
    13     4     5   ar
    14     5     6    1
    15    13    14    1
    16    13    17    1
    17    13    18    1
    18     8    14    1
    19     8     7    1
    20     6     7    1
    21    14    15    1
    22    17    21    1
    23    17    16    1
    24    21    22    1
    25    16    15    1
