@<TRIPOS>MOLECULE
/tmp/ewbell/vina_1jgl_1jgl_lig/vina/vina1.pdbqt
 22 25 0 0 0
SMALL
GASTEIGER

@<TRIPOS>ATOM
      1  C1        43.2050   25.8220   67.8790 C.ar  430  INH430      0.0110
      2  C2        44.6030   25.7330   68.1880 C.ar  430  INH430      0.0370
      3  C3        45.3910   24.6610   67.6380 C.ar  430  INH430      0.0660
      4  C4        44.7960   23.6770   66.7760 C.ar  430  INH430      0.0440
      5  C5        43.3860   23.7460   66.4430 C.ar  430  INH430     -0.0490
      6  C6        42.7800   22.6810   65.4990 C.3   430  INH430      0.0390
      7  C7        41.2590   22.8460   65.1680 C.3   430  INH430      0.0100
      8  C8        40.7640   24.3180   65.1920 C.3   430  INH430     -0.0010
      9  C9        41.0250   24.9210   66.6500 C.3   430  INH430      0.0230
     10  C10       42.5530   24.8440   67.0080 C.ar  430  INH430     -0.0470
     11  C11       40.4790   26.3890   66.6790 C.3   430  INH430      0.0100
     12  C12       38.9680   26.5080   66.3070 C.3   430  INH430      0.0130
     13  C13       38.7170   25.9610   64.8700 C.3   430  INH430     -0.0140
     14  C14       39.2130   24.4340   64.8450 C.3   430  INH430      0.0010
     15  C15       38.6550   23.9690   63.4890 C.3   430  INH430      0.0080
     16  C16       37.1640   24.4960   63.5620 C.3   430  INH430      0.0330
     17  C17       37.2170   25.7730   64.4770 C.3   430  INH430      0.1260
     18  C18       39.4180   26.9090   63.7920 C.3   430  INH430      0.0180
     19  O1        46.7300   24.5850   67.9440 O.3   430  INH430     -0.3610
     20  H3        46.9280   23.7210   68.2860 H     430  INH430      0.2170
     21  O2        36.5970   26.8890   63.7830 O.3   430  INH430     -0.3950
     22  H21       36.7700   26.8180   62.8530 H     430  INH430      0.2100
@<TRIPOS>BOND
     1    22    21    1
     2    15    16    1
     3    15    14    1
     4    16    17    1
     5    21    17    1
     6    18    13    1
     7    17    13    1
     8    14    13    1
     9    14     8    1
    10    13    12    1
    11     7     8    1
    12     7     6    1
    13     8     9    1
    14     6     5    1
    15    12    11    1
    16     5     4   ar
    17     5    10   ar
    18     9    11    1
    19     9    10    1
    20     4     3   ar
    21    10     1   ar
    22     3    19    1
    23     3     2   ar
    24     1     2   ar
    25    19    20    1
