@<TRIPOS>MOLECULE
/tmp/ewbell/vina_1jgl_1jgl_lig/vina/vina5.pdbqt
 22 25 0 0 0
SMALL
GASTEIGER

@<TRIPOS>ATOM
      1  C1        41.8610   20.1660   64.4270 C.ar  430  INH430      0.0110
      2  C2        42.1930   18.8400   64.8640 C.ar  430  INH430      0.0370
      3  C3        42.7100   18.6340   66.1930 C.ar  430  INH430      0.0660
      4  C4        42.8920   19.7400   67.0930 C.ar  430  INH430      0.0440
      5  C5        42.5580   21.0890   66.6770 C.ar  430  INH430     -0.0490
      6  C6        42.7510   22.2560   67.6740 C.3   430  INH430      0.0390
      7  C7        42.3400   23.6750   67.1560 C.3   430  INH430      0.0100
      8  C8        41.1950   23.6550   66.1060 C.3   430  INH430     -0.0010
      9  C9        41.6690   22.7840   64.8510 C.3   430  INH430      0.0230
     10  C10       42.0300   21.3240   65.3040 C.ar  430  INH430     -0.0470
     11  C11       40.5290   22.8110   63.7770 C.3   430  INH430      0.0100
     12  C12       40.1270   24.2470   63.3180 C.3   430  INH430      0.0130
     13  C13       39.6250   25.0850   64.5310 C.3   430  INH430     -0.0140
     14  C14       40.8100   25.1210   65.6140 C.3   430  INH430      0.0010
     15  C15       40.2800   26.1850   66.5900 C.3   430  INH430      0.0080
     16  C16       39.8470   27.3390   65.5980 C.3   430  INH430      0.0330
     17  C17       39.4470   26.6130   64.2630 C.3   430  INH430      0.1260
     18  C18       38.2430   24.4920   65.0730 C.3   430  INH430      0.0180
     19  O1        43.0280   17.3590   66.6000 O.3   430  INH430     -0.3610
     20  H3        42.2640   16.8000   66.5180 H     430  INH430      0.2170
     21  O2        38.1160   27.0390   63.8640 O.3   430  INH430     -0.3950
     22  H21       37.5250   26.2960   63.8900 H     430  INH430      0.2100
@<TRIPOS>BOND
     1    12    11    1
     2    12    13    1
     3    11     9    1
     4    21    22    1
     5    21    17    1
     6    17    13    1
     7    17    16    1
     8     1     2   ar
     9     1    10   ar
    10    13    18    1
    11    13    14    1
    12     9    10    1
    13     9     8    1
    14     2     3   ar
    15    10     5   ar
    16    16    15    1
    17    14     8    1
    18    14    15    1
    19     8     7    1
    20     3    19    1
    21     3     4   ar
    22    20    19    1
    23     5     4   ar
    24     5     6    1
    25     7     6    1
