@<TRIPOS>MOLECULE
./ligand/2c92_lig.pdb
 54 55 0 0 0
SMALL
GASTEIGER

@<TRIPOS>ATOM
      1  O1       -18.1910    3.9620   -1.2500 O.2   745  INH745     -0.2224
      2  P1       -18.4370    3.9900    0.2530 P.3   745  INH745      0.5319
      3  O2       -17.1510    3.9580    1.0510 O.3   745  INH745     -0.1145
      4  O3       -19.3770    5.0550    0.7340 O.3   745  INH745     -0.1145
      5  O4       -19.1890    2.5880    0.4800 O.3   745  INH745     -0.2836
      6  C1       -19.3670    2.1280    1.8460 C.3   745  INH745      0.0592
      7  C2       -19.3620    0.8180    2.0640 C.3   745  INH745     -0.0288
      8  C3       -19.4970    0.3650    3.4420 C.3   745  INH745     -0.0494
      9  C4       -20.6690    0.2970    4.0640 C.3   745  INH745     -0.0347
     10  C5       -21.9780    0.6070    3.3900 C.3   745  INH745      0.0284
     11  N1       -22.9560    0.3330    4.4390 N.ar  745  INH745     -0.2863
     12  C6       -23.3910   -0.8410    4.9170 C.ar  745  INH745      0.1522
     13  C7       -23.0860   -2.2390    4.5680 C.ar  745  INH745      0.2799
     14  O5       -22.2870   -2.5260    3.6620 O.2   745  INH745     -0.2654
     15  N2       -23.7270   -3.2060    5.2660 N.ar  745  INH745     -0.2733
     16  C8       -23.6040    1.2120    5.1890 C.ar  745  INH745      0.3315
     17  O6       -23.4790    2.4780    5.0610 O.2   745  INH745     -0.2463
     18  N3       -24.4150    0.7220    6.1220 N.ar  745  INH745     -0.2754
     19  C9       -24.3540   -0.5950    6.0000 C.ar  745  INH745      0.1486
     20  N4       -24.9270   -1.6560    6.6150 N.ar  745  INH745     -0.2920
     21  C10      -24.6070   -2.9160    6.2650 C.ar  745  INH745      0.3283
     22  O7       -25.1580   -3.8500    6.8580 O.2   745  INH745     -0.2466
     23  C11      -25.2130    1.5690    6.9860 C.3   745  INH745      0.0580
     24  C12      -25.6670    0.9650    8.2910 C.3   745  INH745      0.1015
     25  O8       -24.8620   -0.0700    8.9060 O.3   745  INH745     -0.3874
     26  C13      -26.3120    1.9450    9.2510 C.3   745  INH745      0.1106
     27  O9       -27.6320    1.5470    8.9280 O.3   745  INH745     -0.3865
     28  C14      -26.1580    3.4500    9.0130 C.3   745  INH745      0.1065
     29  O10      -24.8150    3.8680    9.3060 O.3   745  INH745     -0.3869
     30  C15      -27.0850    4.2170    9.9590 C.3   745  INH745      0.0726
     31  O11      -26.8070    3.8260   11.3150 O.3   745  INH745     -0.3924
     32  H1       -20.3340    2.5160    2.1990 H     745  INH745      0.0565
     33  H2       -18.5550    2.5640    2.4470 H     745  INH745      0.0565
     34  H3       -18.4100    0.4240    1.6790 H     745  INH745      0.0287
     35  H4       -20.1960    0.3860    1.4920 H     745  INH745      0.0287
     36  H5       -18.8700    1.0370    4.0460 H     745  INH745      0.0267
     37  H6       -19.0780   -0.6520    3.4710 H     745  INH745      0.0267
     38  H7       -20.5980    0.9870    4.9180 H     745  INH745      0.0282
     39  H8       -20.7560   -0.7360    4.4330 H     745  INH745      0.0282
     40  H9       -22.1390   -0.0450    2.5190 H     745  INH745      0.0493
     41  H10      -22.0210    1.6600    3.0740 H     745  INH745      0.0493
     42  H11      -23.5490   -4.1640    5.0410 H     745  INH745      0.1735
     43  H12      -25.5980   -1.5020    7.3400 H     745  INH745      0.1718
     44  H13      -26.1110    1.8660    6.4250 H     745  INH745      0.0520
     45  H14      -24.6160    2.4620    7.2210 H     745  INH745      0.0520
     46  H15      -26.5350    0.3780    7.9570 H     745  INH745      0.0638
     47  H16      -25.2720   -0.3510    9.7160 H     745  INH745      0.2100
     48  H17      -26.0300    1.7270   10.2920 H     745  INH745      0.0646
     49  H18      -28.2500    2.0560    9.4390 H     745  INH745      0.2100
     50  H19      -26.4060    3.6840    7.9670 H     745  INH745      0.0643
     51  H20      -24.7340    4.8020    9.1540 H     745  INH745      0.2100
     52  H21      -28.1320    3.9840    9.7170 H     745  INH745      0.0584
     53  H22      -26.9140    5.2980    9.8450 H     745  INH745      0.0584
     54  H23      -27.3810    4.3000   11.9050 H     745  INH745      0.2095
@<TRIPOS>BOND
     1     1     2    2
     2     2     5    1
     3     2     4    1
     4     2     3    1
     5     5     6    1
     6    35     7    1
     7    34     7    1
     8     6     7    1
     9     6    32    1
    10     6    33    1
    11     7     8    1
    12    40    10    1
    13    41    10    1
    14    10     9    1
    15    10    11    1
    16     8    37    1
    17     8    36    1
    18     8     9    1
    19    14    13    2
    20     9    39    1
    21     9    38    1
    22    11    12   ar
    23    11    16   ar
    24    13    12   ar
    25    13    15   ar
    26    12    19   ar
    27    42    15    1
    28    17    16    2
    29    16    18   ar
    30    15    21   ar
    31    19    18   ar
    32    19    20   ar
    33    18    23    1
    34    21    20   ar
    35    21    22    2
    36    44    23    1
    37    20    43    1
    38    23    45    1
    39    23    24    1
    40    46    24    1
    41    50    28    1
    42    24    25    1
    43    24    26    1
    44    25    47    1
    45    27    26    1
    46    27    49    1
    47    28    26    1
    48    28    29    1
    49    28    30    1
    50    51    29    1
    51    26    48    1
    52    52    30    1
    53    53    30    1
    54    30    31    1
    55    31    54    1
