@<TRIPOS>MOLECULE
/tmp/ewbell/vina_2c92_2c92_lig/vina/vina2.pdbqt
 39 40 0 0 0
SMALL
GASTEIGER

@<TRIPOS>ATOM
      1  N1       -22.6860    0.6580    4.5250 N.ar  745  INH745     -0.2910
      2  C6       -23.1080   -0.5340    4.9670 C.ar  745  INH745      0.1520
      3  C7       -22.7170   -1.9170    4.6440 C.ar  745  INH745      0.2800
      4  O5       -21.8360   -2.1680    3.8060 O.2   745  INH745     -0.2650
      5  N2       -23.3710   -2.9130    5.2890 N.ar  745  INH745     -0.2730
      6  C8       -23.4290    1.5070    5.2200 C.ar  745  INH745      0.3310
      7  O6       -23.3480    2.7770    5.1020 O.2   745  INH745     -0.2460
      8  N3       -24.2910    0.9800    6.0840 N.ar  745  INH745     -0.2800
      9  C9       -24.1650   -0.3330    5.9680 C.ar  745  INH745      0.1480
     10  N4       -24.7400   -1.4190    6.5350 N.ar  745  INH745     -0.2920
     11  C10      -24.3400   -2.6630    6.2130 C.ar  745  INH745      0.3280
     12  O7       -24.8970   -3.6210    6.7600 O.2   745  INH745     -0.2470
     13  H11      -23.1350   -3.8620    5.0790 H     745  INH745      0.1730
     14  H12      -25.4740   -1.2950    7.2030 H     745  INH745      0.1720
     15  C11      -25.1920    1.7900    6.8810 C.3   745  INH745      0.1700
     16  C12      -24.6620    2.2890    8.2010 C.3   745  INH745      0.1680
     17  O8       -23.4750    3.1200    8.2150 O.3   745  INH745     -0.3910
     18  H16      -23.5760    3.8280    7.5890 H     745  INH745      0.2100
     19  C13      -25.7280    2.6610    9.2110 C.3   745  INH745      0.1790
     20  O9       -26.2420    1.3450    9.3030 O.3   745  INH745     -0.3900
     21  H18      -27.0950    1.3670    9.7220 H     745  INH745      0.2100
     22  C14      -26.8510    3.6220    8.8070 C.3   745  INH745      0.1730
     23  O10      -26.3220    4.7120    8.0350 O.3   745  INH745     -0.3910
     24  H20      -25.7370    5.2290    8.5760 H     745  INH745      0.2100
     25  C15      -27.4860    4.2260   10.0620 C.3   745  INH745      0.1980
     26  O11      -26.7030    3.8600   11.2120 O.3   745  INH745     -0.3980
     27  H23      -25.7790    3.9240   10.9990 H     745  INH745      0.2090
     28  C5       -21.6380    0.9760    3.5590 C.3   745  INH745      0.1340
     29  C4       -22.3870    1.0100    2.2540 C.2   745  INH745      0.0200
     30  C3       -21.8180    1.3330    1.0970 C.2   745  INH745      0.0040
     31  C2       -22.5560    1.3770   -0.1570 C.2   745  INH745      0.0270
     32  C1       -23.5340    2.2680   -0.2630 C.2   745  INH745      0.1800
     33  O4       -24.2860    2.3070   -1.5050 O.2   745  INH745     -0.2970
     34  P1       -25.8370    1.8910   -1.4560 P.3   745  INH745      0.3900
     35  O1       -25.7570    0.4950   -0.8540 O.2   745  INH745     -0.6320
     36  O3       -26.5230    2.9220   -0.6080 O.3   745  INH745     -0.3070
     37  H        -27.4310    3.0480   -0.9230 H     745  INH745      0.2220
     38  O2       -26.3580    1.8810   -2.8780 O.3   745  INH745     -0.3070
     39  H        -25.6780    1.5200   -3.4670 H     745  INH745      0.2220
@<TRIPOS>BOND
     1    39    38    1
     2    38    34    1
     3    33    34    1
     4    33    32    1
     5    34    35    2
     6    34    36    1
     7    37    36    1
     8    32    31    2
     9    31    30    1
    10    30    29    2
    11    29    28    1
    12    28     1    1
    13     4     3    2
    14     1     2   ar
    15     1     6   ar
    16     3     2   ar
    17     3     5   ar
    18     2     9   ar
    19    13     5    1
    20     7     6    2
    21     6     8   ar
    22     5    11   ar
    23     9     8   ar
    24     9    10   ar
    25     8    15    1
    26    11    10   ar
    27    11    12    2
    28    10    14    1
    29    15    16    1
    30    18    17    1
    31    23    24    1
    32    23    22    1
    33    16    17    1
    34    16    19    1
    35    22    19    1
    36    22    25    1
    37    19    20    1
    38    20    21    1
    39    25    26    1
    40    27    26    1
