@<TRIPOS>MOLECULE
/tmp/ewbell/vina_2c92_2c92_lig/vina/vina5.pdbqt
 39 40 0 0 0
SMALL
GASTEIGER

@<TRIPOS>ATOM
      1  N1       -21.0220    0.4160    3.6220 N.ar  745  INH745     -0.2910
      2  C6       -21.1890   -0.2520    2.4730 C.ar  745  INH745      0.1520
      3  C7       -21.6440   -1.6190    2.1660 C.ar  745  INH745      0.2800
      4  O5       -21.9600   -2.4180    3.0630 O.2   745  INH745     -0.2650
      5  N2       -21.6890   -1.9790    0.8620 N.ar  745  INH745     -0.2730
      6  C8       -20.6040    1.6040    3.2110 C.ar  745  INH745      0.3310
      7  O6       -20.3180    2.5660    4.0040 O.2   745  INH745     -0.2460
      8  N3       -20.4930    1.7800    1.8980 N.ar  745  INH745     -0.2800
      9  C9       -20.8300    0.6230    1.3480 C.ar  745  INH745      0.1480
     10  N4       -20.9170    0.1340    0.0890 N.ar  745  INH745     -0.2920
     11  C10      -21.3490   -1.1200   -0.1390 C.ar  745  INH745      0.3280
     12  O7       -21.4110   -1.5190   -1.3070 O.2   745  INH745     -0.2470
     13  H11      -21.9820   -2.9060    0.6260 H     745  INH745      0.1730
     14  H12      -20.6570    0.7130   -0.6840 H     745  INH745      0.1720
     15  C11      -20.0120    3.0160    1.3130 C.3   745  INH745      0.1700
     16  C12      -21.0280    4.1130    1.1220 C.3   745  INH745      0.1680
     17  O8       -22.4340    3.7670    1.0500 O.3   745  INH745     -0.3910
     18  H16      -22.9520    4.4680    1.4280 H     745  INH745      0.2100
     19  C13      -20.7120    5.4020    1.8520 C.3   745  INH745      0.1790
     20  O9       -19.4310    4.9690    2.2710 O.3   745  INH745     -0.3900
     21  H18      -18.9680    5.6930    2.6760 H     745  INH745      0.2100
     22  C14      -21.5430    5.8030    3.0760 C.3   745  INH745      0.1730
     23  O10      -22.1120    4.6390    3.6960 O.3   745  INH745     -0.3910
     24  H20      -22.1990    3.9470    3.0510 H     745  INH745      0.2100
     25  C15      -22.7070    6.6940    2.6360 C.3   745  INH745      0.1980
     26  O11      -23.9320    5.9410    2.7050 O.3   745  INH745     -0.3980
     27  H23      -24.5240    6.2370    2.0230 H     745  INH745      0.2090
     28  C5       -21.2740   -0.0130    4.9950 C.3   745  INH745      0.1340
     29  C4       -22.7150    0.3650    5.2040 C.2   745  INH745      0.0200
     30  C3       -23.2940    0.3900    6.4000 C.2   745  INH745      0.0040
     31  C2       -24.6940    0.7430    6.5880 C.2   745  INH745      0.0270
     32  C1       -24.9660    1.9790    6.9920 C.2   745  INH745      0.1800
     33  O4       -26.3600    2.3340    7.1980 O.2   745  INH745     -0.2970
     34  P1       -26.6850    3.5200    8.2330 P.3   745  INH745      0.3900
     35  O1       -27.7670    2.8820    9.0940 O.2   745  INH745     -0.6320
     36  O3       -25.3970    3.8300    8.9370 O.3   745  INH745     -0.3070
     37  H        -25.3970    4.7580    9.2170 H     745  INH745      0.2220
     38  O2       -27.2000    4.7000    7.4350 O.3   745  INH745     -0.3070
     39  H        -28.0290    5.0160    7.8260 H     745  INH745      0.2220
@<TRIPOS>BOND
     1    12    11    2
     2    14    10    1
     3    11    10   ar
     4    11     5   ar
     5    10     9   ar
     6    13     5    1
     7     5     3   ar
     8    17    16    1
     9    17    18    1
    10    16    15    1
    11    16    19    1
    12    15     8    1
    13     9     8   ar
    14     9     2   ar
    15    19    20    1
    16    19    22    1
    17     8     6   ar
    18    27    26    1
    19     3     2   ar
    20     3     4    2
    21    20    21    1
    22     2     1   ar
    23    25    26    1
    24    25    22    1
    25    24    23    1
    26    22    23    1
    27     6     1   ar
    28     6     7    2
    29     1    28    1
    30    28    29    1
    31    29    30    2
    32    30    31    1
    33    31    32    2
    34    32    33    1
    35    33    34    1
    36    38    39    1
    37    38    34    1
    38    34    36    1
    39    34    35    2
    40    36    37    1
