@<TRIPOS>MOLECULE
/tmp/ewbell/vina_2c92_2c92_lig/vina/vina3.pdbqt
 39 40 0 0 0
SMALL
GASTEIGER

@<TRIPOS>ATOM
      1  N1       -22.3840    3.9800    1.8750 N.ar  745  INH745     -0.2910
      2  C6       -21.0710    4.1540    1.6690 C.ar  745  INH745      0.1520
      3  C7       -20.0810    5.0780    2.2480 C.ar  745  INH745      0.2800
      4  O5       -20.3970    5.9210    3.1030 O.2   745  INH745     -0.2650
      5  N2       -18.8080    4.9850    1.7960 N.ar  745  INH745     -0.2730
      6  C8       -22.6790    2.9830    1.0540 C.ar  745  INH745      0.3310
      7  O6       -23.8530    2.4920    0.9310 O.2   745  INH745     -0.2460
      8  N3       -21.6770    2.4790    0.3380 N.ar  745  INH745     -0.2800
      9  C9       -20.6090    3.1930    0.6580 C.ar  745  INH745      0.1480
     10  N4       -19.3060    3.2090    0.2930 N.ar  745  INH745     -0.2920
     11  C10      -18.4380    4.0680    0.8590 C.ar  745  INH745      0.3280
     12  O7       -17.2580    4.0420    0.4910 O.2   745  INH745     -0.2470
     13  H11      -18.1180    5.6100    2.1620 H     745  INH745      0.1730
     14  H12      -18.9820    2.5740   -0.4080 H     745  INH745      0.1720
     15  C11      -21.8650    1.4130   -0.6250 C.3   745  INH745      0.1700
     16  C12      -21.1190    0.1290   -0.3640 C.3   745  INH745      0.1680
     17  O8       -19.6820    0.1000   -0.5420 O.3   745  INH745     -0.3910
     18  H16      -19.3080   -0.5820    0.0050 H     745  INH745      0.2100
     19  C13      -21.6470   -0.6840    0.8010 C.3   745  INH745      0.1790
     20  O9       -23.0050   -0.5030    0.4430 O.3   745  INH745     -0.3900
     21  H18      -23.3050    0.3430    0.7540 H     745  INH745      0.2100
     22  C14      -21.4240   -0.1860    2.2330 C.3   745  INH745      0.1730
     23  O10      -20.0670    0.2530    2.4040 O.3   745  INH745     -0.3910
     24  H20      -19.9670    1.1240    2.0370 H     745  INH745      0.2100
     25  C15      -21.6540   -1.3350    3.2170 C.3   745  INH745      0.1980
     26  O11      -21.7470   -2.5720    2.4880 O.3   745  INH745     -0.3980
     27  H23      -21.0360   -3.1470    2.7480 H     745  INH745      0.2090
     28  C5       -23.2820    4.6680    2.7980 C.3   745  INH745      0.1340
     29  C4       -23.8170    3.5430    3.6440 C.2   745  INH745      0.0200
     30  C3       -23.0520    2.8090    4.4450 C.2   745  INH745      0.0040
     31  C2       -23.5780    1.7140    5.2470 C.2   745  INH745      0.0270
     32  C1       -24.6400    1.9630    6.0050 C.2   745  INH745      0.1800
     33  O4       -25.1610    0.8790    6.8210 O.2   745  INH745     -0.2970
     34  P1       -25.0580    1.0270    8.4180 P.3   745  INH745      0.3900
     35  O1       -24.0890    2.1940    8.5520 O.2   745  INH745     -0.6320
     36  O3       -26.4530    1.2860    8.9070 O.3   745  INH745     -0.3070
     37  H        -26.4180    1.6780    9.7930 H     745  INH745      0.2220
     38  O2       -24.4910   -0.2650    8.9660 O.3   745  INH745     -0.3070
     39  H        -24.1510   -0.8030    8.2350 H     745  INH745      0.2220
@<TRIPOS>BOND
     1    15    16    1
     2    15     8    1
     3    17    16    1
     4    17    18    1
     5    14    10    1
     6    16    19    1
     7    10     9   ar
     8    10    11   ar
     9     8     9   ar
    10     8     6   ar
    11    20    21    1
    12    20    19    1
    13    12    11    2
    14     9     2   ar
    15    19    22    1
    16    11     5   ar
    17     7     6    2
    18     6     1   ar
    19     2     1   ar
    20     2     3   ar
    21     5    13    1
    22     5     3   ar
    23     1    28    1
    24    24    23    1
    25    22    23    1
    26    22    25    1
    27     3     4    2
    28    26    27    1
    29    26    25    1
    30    28    29    1
    31    29    30    2
    32    30    31    1
    33    31    32    2
    34    32    33    1
    35    33    34    1
    36    39    38    1
    37    34    35    2
    38    34    36    1
    39    34    38    1
    40    36    37    1
