@<TRIPOS>MOLECULE
/tmp/ewbell/vina_2c92_2c92_lig/vina/vina4.pdbqt
 39 40 0 0 0
SMALL
GASTEIGER

@<TRIPOS>ATOM
      1  N1       -21.1260    0.2150    2.2930 N.ar  745  INH745     -0.2910
      2  C6       -20.1560    1.1230    2.1160 C.ar  745  INH745      0.1520
      3  C7       -19.0980    1.6430    3.0000 C.ar  745  INH745      0.2800
      4  O5       -18.9740    1.2500    4.1710 O.2   745  INH745     -0.2650
      5  N2       -18.2710    2.5850    2.4880 N.ar  745  INH745     -0.2730
      6  C8       -21.7260    0.1960    1.1130 C.ar  745  INH745      0.3310
      7  O6       -22.7300   -0.5490    0.8430 O.2   745  INH745     -0.2460
      8  N3       -21.2330    0.9990    0.1750 N.ar  745  INH745     -0.2800
      9  C9       -20.2310    1.6500    0.7460 C.ar  745  INH745      0.1480
     10  N4       -19.3410    2.5960    0.3630 N.ar  745  INH745     -0.2920
     11  C10      -18.3870    3.0320    1.2060 C.ar  745  INH745      0.3280
     12  O7       -17.5980    3.8960    0.8060 O.2   745  INH745     -0.2470
     13  H11      -17.5520    2.9660    3.0700 H     745  INH745      0.1730
     14  H12      -19.3940    2.9760   -0.5610 H     745  INH745      0.1720
     15  C11      -21.8160    1.1060   -1.1480 C.3   745  INH745      0.1700
     16  C12      -22.7070    2.2960   -1.3980 C.3   745  INH745      0.1680
     17  O8       -23.2150    3.0460   -0.2670 O.3   745  INH745     -0.3910
     18  H16      -22.4960    3.4930    0.1650 H     745  INH745      0.2100
     19  C13      -22.3340    3.1220   -2.6120 C.3   745  INH745      0.1790
     20  O9       -22.2870    2.0060   -3.4820 O.3   745  INH745     -0.3900
     21  H18      -21.5560    1.4480   -3.2420 H     745  INH745      0.2100
     22  C14      -20.9890    3.8550   -2.6450 C.3   745  INH745      0.1730
     23  O10      -20.7670    4.5490   -1.4070 O.3   745  INH745     -0.3910
     24  H20      -20.1690    4.0470   -0.8660 H     745  INH745      0.2100
     25  C15      -21.0050    4.9070   -3.7550 C.3   745  INH745      0.1980
     26  O11      -21.5960    6.1190   -3.2510 O.3   745  INH745     -0.3980
     27  H23      -21.2850    6.8590   -3.7610 H     745  INH745      0.2090
     28  C5       -21.4370   -0.5990    3.4640 C.3   745  INH745      0.1340
     29  C4       -22.5220    0.1920    4.1440 C.2   745  INH745      0.0200
     30  C3       -22.2980    0.9900    5.1820 C.2   745  INH745      0.0040
     31  C2       -23.3580    1.7400    5.8410 C.2   745  INH745      0.0270
     32  C1       -23.6540    1.4120    7.0930 C.2   745  INH745      0.1800
     33  O4       -24.7210    2.1440    7.7520 O.2   745  INH745     -0.2970
     34  P1       -25.7910    1.3020    8.6070 P.3   745  INH745      0.3900
     35  O1       -26.9120    1.1180    7.5920 O.2   745  INH745     -0.6320
     36  O3       -25.0930    0.0440    9.0330 O.3   745  INH745     -0.3070
     37  H        -25.6720   -0.7170    8.8740 H     745  INH745      0.2220
     38  O2       -26.2110    2.1520    9.7870 O.3   745  INH745     -0.3070
     39  H        -25.4580    2.6840   10.0850 H     745  INH745      0.2220
@<TRIPOS>BOND
     1    27    26    1
     2    25    26    1
     3    25    22    1
     4    20    21    1
     5    20    19    1
     6    22    19    1
     7    22    23    1
     8    19    16    1
     9    23    24    1
    10    16    15    1
    11    16    17    1
    12    15     8    1
    13    14    10    1
    14    17    18    1
    15     8     9   ar
    16     8     6   ar
    17    10     9   ar
    18    10    11   ar
    19     9     2   ar
    20    12    11    2
    21     7     6    2
    22     6     1   ar
    23    11     5   ar
    24     2     1   ar
    25     2     3   ar
    26     1    28    1
    27     5     3   ar
    28     5    13    1
    29     3     4    2
    30    28    29    1
    31    29    30    2
    32    30    31    1
    33    31    32    2
    34    32    33    1
    35    35    34    2
    36    33    34    1
    37    34    36    1
    38    34    38    1
    39    37    36    1
    40    38    39    1
