@<TRIPOS>MOLECULE
/tmp/ewbell/vina_2c92_2c92_lig/vina/vina1.pdbqt
 39 40 0 0 0
SMALL
GASTEIGER

@<TRIPOS>ATOM
      1  N1       -22.1740    0.4290    4.2500 N.ar  745  INH745     -0.2910
      2  C6       -21.9960   -0.1490    3.0540 C.ar  745  INH745      0.1520
      3  C7       -21.8330   -1.5510    2.6330 C.ar  745  INH745      0.2800
      4  O5       -21.8350   -2.4830    3.4540 O.2   745  INH745     -0.2650
      5  N2       -21.6630   -1.7850    1.3110 N.ar  745  INH745     -0.2730
      6  C8       -22.2630    1.7140    3.9430 C.ar  745  INH745      0.3310
      7  O6       -22.4370    2.6370    4.8110 O.2   745  INH745     -0.2460
      8  N3       -22.1710    2.0310    2.6550 N.ar  745  INH745     -0.2800
      9  C9       -21.9750    0.8900    2.0140 C.ar  745  INH745      0.1480
     10  N4       -21.7920    0.5170    0.7250 N.ar  745  INH745     -0.2920
     11  C10      -21.6580   -0.7800    0.3910 C.ar  745  INH745      0.3280
     12  O7       -21.4940   -1.0670   -0.7990 O.2   745  INH745     -0.2470
     13  H11      -21.5360   -2.7270    0.9990 H     745  INH745      0.1730
     14  H12      -21.7570    1.2160    0.0110 H     745  INH745      0.1720
     15  C11      -22.2130    3.4010    2.1830 C.3   745  INH745      0.1700
     16  C12      -20.9630    3.9270    1.5260 C.3   745  INH745      0.1680
     17  O8       -21.0350    5.1480    0.7490 O.3   745  INH745     -0.3910
     18  H16      -21.1110    5.8930    1.3350 H     745  INH745      0.2100
     19  C13      -19.6970    3.7480    2.3390 C.3   745  INH745      0.1790
     20  O9       -19.0800    4.9140    1.8240 O.3   745  INH745     -0.3900
     21  H18      -19.7490    5.5380    1.5670 H     745  INH745      0.2100
     22  C14      -18.7960    2.5360    2.0800 C.3   745  INH745      0.1730
     23  O10      -18.6080    1.7860    3.2910 O.3   745  INH745     -0.3910
     24  H20      -18.4280    0.8780    3.0760 H     745  INH745      0.2100
     25  C15      -17.4150    3.0110    1.6240 C.3   745  INH745      0.1980
     26  O11      -16.4400    2.6610    2.6240 O.3   745  INH745     -0.3980
     27  H23      -16.0970    3.4540    3.0220 H     745  INH745      0.2090
     28  C5       -22.2930   -0.1820    5.5710 C.3   745  INH745      0.1340
     29  C4       -23.6790    0.2190    6.0010 C.2   745  INH745      0.0200
     30  C3       -23.9820    0.5620    7.2480 C.2   745  INH745      0.0040
     31  C2       -25.3290    0.9340    7.6570 C.2   745  INH745      0.0270
     32  C1       -25.4520    1.7330    8.7100 C.2   745  INH745      0.1800
     33  O4       -26.7940    2.0960    9.1340 O.2   745  INH745     -0.2970
     34  P1       -27.2180    3.6430    9.0350 P.3   745  INH745      0.3900
     35  O1       -28.3140    3.5890    7.9780 O.2   745  INH745     -0.6320
     36  O3       -27.6650    4.0450   10.4090 O.3   745  INH745     -0.3070
     37  H        -28.4170    4.6530   10.3400 H     745  INH745      0.2220
     38  O2       -26.0070    4.4250    8.5740 O.3   745  INH745     -0.3070
     39  H        -26.1590    5.3710    8.7210 H     745  INH745      0.2220
@<TRIPOS>BOND
     1    12    11    2
     2    14    10    1
     3    11    10   ar
     4    11     5   ar
     5    10     9   ar
     6    17    18    1
     7    17    16    1
     8    13     5    1
     9     5     3   ar
    10    16    15    1
    11    16    19    1
    12    21    20    1
    13    25    22    1
    14    25    26    1
    15    20    19    1
    16     9     8   ar
    17     9     2   ar
    18    22    19    1
    19    22    23    1
    20    15     8    1
    21    26    27    1
    22     3     2   ar
    23     3     4    2
    24     8     6   ar
    25     2     1   ar
    26    24    23    1
    27     6     1   ar
    28     6     7    2
    29     1    28    1
    30    28    29    1
    31    29    30    2
    32    30    31    1
    33    31    32    2
    34    35    34    2
    35    38    39    1
    36    38    34    1
    37    32    33    1
    38    34    33    1
    39    34    36    1
    40    37    36    1
