@<TRIPOS>MOLECULE
./ligand/1ui0_lig.pdb
 12 12 0 0 0
SMALL
GASTEIGER

@<TRIPOS>ATOM
      1  N1        23.2440    9.8690   10.4930 N.ar  203  INH203     -0.3143
      2  C1        22.3360    8.8680   10.1490 C.ar  203  INH203      0.3267
      3  O1        21.9440    8.6400    9.0140 O.2   203  INH203     -0.2467
      4  N2        21.8890    8.1140   11.2030 N.ar  203  INH203     -0.2751
      5  C2        22.2250    8.2260   12.5460 C.ar  203  INH203      0.2539
      6  O2        21.8020    7.5230   13.4690 O.2   203  INH203     -0.2677
      7  C3        23.1750    9.2990   12.8060 C.ar  203  INH203      0.0189
      8  C4        23.6430   10.0660   11.8030 C.ar  203  INH203      0.0115
      9  H1        23.6160   10.4580    9.7760 H     203  INH203      0.1698
     10  H2        21.2370    7.3900   10.9760 H     203  INH203      0.1734
     11  H3        23.5110    9.4830   13.8250 H     203  INH203      0.0686
     12  H4        24.3530   10.8610   12.0280 H     203  INH203      0.0810
@<TRIPOS>BOND
     1     1     9    1
     2     1     8   ar
     3     1     2   ar
     4     2     4   ar
     5     2     3    2
     6     4    10    1
     7     4     5   ar
     8     5     7   ar
     9     5     6    2
    10     7    11    1
    11     7     8   ar
    12     8    12    1
