@<TRIPOS>MOLECULE
/tmp/ewbell/vina_1ui0_1ui0_lig/vina/vina1.pdbqt
 10 10 0 0 0
SMALL
GASTEIGER

@<TRIPOS>ATOM
      1  N1        23.2430    9.9220   10.4350 N.ar  203  INH203     -0.3190
      2  C1        22.3960    8.8690   10.0930 C.ar  203  INH203      0.3260
      3  O1        22.0210    8.6140    8.9570 O.2   203  INH203     -0.2470
      4  N2        21.9900    8.0940   11.1480 N.ar  203  INH203     -0.2760
      5  C2        22.3150    8.2310   12.4920 C.ar  203  INH203      0.2500
      6  O2        21.9300    7.5080   13.4170 O.2   203  INH203     -0.2680
      7  C3        23.2000    9.3580   12.7500 C.ar  203  INH203      0.0910
      8  C4        23.6260   10.1470   11.7450 C.ar  203  INH203      0.0980
      9  H1        23.5830   10.5290    9.7170 H     203  INH203      0.1700
     10  H2        21.3810    7.3330   10.9230 H     203  INH203      0.1730
@<TRIPOS>BOND
     1     3     2    2
     2     9     1    1
     3     2     1   ar
     4     2     4   ar
     5     1     8   ar
     6    10     4    1
     7     4     5   ar
     8     8     7   ar
     9     5     7   ar
    10     5     6    2
