@<TRIPOS>MOLECULE
/tmp/ewbell/vina_1ui0_1ui0_lig/vina/vina5.pdbqt
 10 10 0 0 0
SMALL
GASTEIGER

@<TRIPOS>ATOM
      1  N1        24.5200    9.9140   11.0920 N.ar  203  INH203     -0.3190
      2  C1        23.6830    9.9330   12.2080 C.ar  203  INH203      0.3260
      3  O1        22.7890    9.1280   12.4250 O.2   203  INH203     -0.2470
      4  N2        23.9340   10.9490   13.0940 N.ar  203  INH203     -0.2760
      5  C2        24.9010   11.9420   13.0150 C.ar  203  INH203      0.2500
      6  O2        25.0990   12.8410   13.8380 O.2   203  INH203     -0.2680
      7  C3        25.7210   11.8410   11.8150 C.ar  203  INH203      0.0910
      8  C4        25.5140   10.8600   10.9160 C.ar  203  INH203      0.0980
      9  H1        24.3980    9.2000   10.4030 H     203  INH203      0.1700
     10  H2        23.3440   10.9780   13.9020 H     203  INH203      0.1730
@<TRIPOS>BOND
     1     9     1    1
     2     8     1   ar
     3     8     7   ar
     4     1     2   ar
     5     7     5   ar
     6     2     3    2
     7     2     4   ar
     8     5     4   ar
     9     5     6    2
    10     4    10    1
