@<TRIPOS>MOLECULE
/tmp/ewbell/vina_1ui0_1ui0_lig/vina/vina2.pdbqt
 10 10 0 0 0
SMALL
GASTEIGER

@<TRIPOS>ATOM
      1  N1        23.1130    9.3790   12.9340 N.ar  203  INH203     -0.3190
      2  C1        22.3540    8.2500   12.6290 C.ar  203  INH203      0.3260
      3  O1        21.9540    7.4360   13.4480 O.2   203  INH203     -0.2470
      4  N2        22.0640    8.0970   11.2980 N.ar  203  INH203     -0.2760
      5  C2        22.4280    8.9160   10.2380 C.ar  203  INH203      0.2500
      6  O2        22.1430    8.7460    9.0480 O.2   203  INH203     -0.2680
      7  C3        23.2190   10.0660   10.6540 C.ar  203  INH203      0.0910
      8  C4        23.5300   10.2590   11.9500 C.ar  203  INH203      0.0980
      9  H1        23.3620    9.5590   13.8850 H     203  INH203      0.1700
     10  H2        21.5190    7.2920   11.0600 H     203  INH203      0.1730
@<TRIPOS>BOND
     1     6     5    2
     2     5     7   ar
     3     5     4   ar
     4     7     8   ar
     5    10     4    1
     6     4     2   ar
     7     8     1   ar
     8     2     1   ar
     9     2     3    2
    10     1     9    1
