@<TRIPOS>MOLECULE
/tmp/ewbell/vina_1ui0_1ui0_lig/vina/vina3.pdbqt
 10 10 0 0 0
SMALL
GASTEIGER

@<TRIPOS>ATOM
      1  N1        22.1330    8.3900   11.1950 N.ar  203  INH203     -0.3190
      2  C1        22.4130    8.3240   12.5600 C.ar  203  INH203      0.3260
      3  O1        21.9450    7.4980   13.3300 O.2   203  INH203     -0.2470
      4  N2        23.2870    9.2790   13.0120 N.ar  203  INH203     -0.2760
      5  C2        23.9140   10.2840   12.2880 C.ar  203  INH203      0.2500
      6  O2        24.7010   11.1270   12.7320 O.2   203  INH203     -0.2680
      7  C3        23.5580   10.2740   10.8760 C.ar  203  INH203      0.0910
      8  C4        22.7040    9.3560   10.3850 C.ar  203  INH203      0.0980
      9  H1        21.5060    7.7240   10.7930 H     203  INH203      0.1700
     10  H2        23.5010    9.2470   13.9890 H     203  INH203      0.1730
@<TRIPOS>BOND
     1     8     7   ar
     2     8     1   ar
     3     9     1    1
     4     7     5   ar
     5     1     2   ar
     6     5     6    2
     7     5     4   ar
     8     2     4   ar
     9     2     3    2
    10     4    10    1
