@<TRIPOS>MOLECULE
/tmp/ewbell/vina_1ui0_1ui0_lig/vina/vina4.pdbqt
 10 10 0 0 0
SMALL
GASTEIGER

@<TRIPOS>ATOM
      1  N1        27.3920    8.8900    8.8500 N.ar  203  INH203     -0.3190
      2  C1        26.8410    8.0930    7.8470 C.ar  203  INH203      0.3260
      3  O1        27.3690    7.0950    7.3780 O.2   203  INH203     -0.2470
      4  N2        25.6150    8.5070    7.3960 N.ar  203  INH203     -0.2760
      5  C2        24.8700    9.6040    7.8100 C.ar  203  INH203      0.2500
      6  O2        23.7630    9.9440    7.3800 O.2   203  INH203     -0.2680
      7  C3        25.5280   10.3740    8.8570 C.ar  203  INH203      0.0910
      8  C4        26.7330   10.0060    9.3320 C.ar  203  INH203      0.0980
      9  H1        28.2840    8.6480    9.2310 H     203  INH203      0.1700
     10  H2        25.2030    7.9480    6.6760 H     203  INH203      0.1730
@<TRIPOS>BOND
     1    10     4    1
     2     3     2    2
     3     6     5    2
     4     4     5   ar
     5     4     2   ar
     6     5     7   ar
     7     2     1   ar
     8     1     9    1
     9     1     8   ar
    10     7     8   ar
