@<TRIPOS>MOLECULE
./ligand/1vso_lig.pdb
 38 38 0 0 0
SMALL
GASTEIGER

@<TRIPOS>ATOM
      1  N1        41.8390    5.0010    5.1840 N.4   499  INH499      0.2291
      2  C1        40.3370    4.7540    4.9780 C.3   499  INH499      0.0828
      3  C2        40.0710    4.5890    3.4290 C.2   499  INH499      0.4029
      4  O1        41.0750    4.6780    2.6580 O.co2 499  INH499     -0.2400
      5  C3        39.4930    5.8860    5.5700 C.3   499  INH499      0.0345
      6  O2        38.8910    4.3770    3.0650 O.co2 499  INH499     -0.2400
      7  H1        42.0300    5.1090    6.1680 H     499  INH499      0.2003
      8  H2        42.1120    5.8390    4.6950 H     499  INH499      0.2003
      9  H3        42.3610    4.2170    4.8250 H     499  INH499      0.2003
     10  H4        38.4750    5.8000    5.1620 H     499  INH499      0.0377
     11  H5        39.9360    6.8410    5.2530 H     499  INH499      0.0377
     12  H6        40.0600    3.8190    5.4860 H     499  INH499      0.0973
     13  O3        39.4480    6.2390    9.2710 O.2   499  INH499     -0.3553
     14  O4        38.0380    3.8840    7.1560 O.3   499  INH499     -0.4666
     15  N2        38.6860    5.0620    9.0890 N.ar  499  INH499     -0.0396
     16  C4        40.6750    8.0160    8.2000 C.3   499  INH499      0.0233
     17  C5        37.2820    2.9370    7.9810 C.3   499  INH499      0.1439
     18  C6        38.6710    4.8910    7.7880 C.ar  499  INH499      0.2587
     19  C7        39.3920    5.8970    7.0660 C.ar  499  INH499      0.0640
     20  C8        39.8570    6.7270    8.0670 C.ar  499  INH499      0.1497
     21  C9        39.7510    9.0910    8.8210 C.3   499  INH499     -0.0531
     22  C10       41.8670    7.7950    9.1260 C.3   499  INH499     -0.0531
     23  C11       41.1810    8.5560    6.8690 C.3   499  INH499     -0.0531
     24  P1        36.2720    1.9120    6.8820 P.3   499  INH499      0.1457
     25  O5        37.1590    1.1790    5.9410 O.3   499  INH499     -0.3553
     26  O6        35.4750    1.0470    7.8200 O.3   499  INH499     -0.3553
     27  O7        35.2950    2.8940    6.1530 O.2   499  INH499     -0.4573
     28  H7        36.6330    3.4860    8.6790 H     499  INH499      0.0777
     29  H8        37.9770    2.3010    8.5500 H     499  INH499      0.0777
     30  H9        40.3070   10.0330    8.9310 H     499  INH499      0.0239
     31  H10       39.4050    8.7510    9.8090 H     499  INH499      0.0239
     32  H11       38.8830    9.2520    8.1640 H     499  INH499      0.0239
     33  H12       42.5310    7.0320    8.6930 H     499  INH499      0.0239
     34  H13       41.5090    7.4550   10.1090 H     499  INH499      0.0239
     35  H14       42.4200    8.7380    9.2430 H     499  INH499      0.0239
     36  H15       40.3290    8.7190    6.1920 H     499  INH499      0.0239
     37  H16       41.8740    7.8300    6.4180 H     499  INH499      0.0239
     38  H17       41.7050    9.5090    7.0350 H     499  INH499      0.0239
@<TRIPOS>BOND
     1     1     7    1
     2     1     2    1
     3     1     9    1
     4     1     8    1
     5     2     5    1
     6     2    12    1
     7     2     3    1
     8     3     6   ar
     9     3     4   ar
    10     5    11    1
    11     5    10    1
    12     5    19    1
    13    13    15   ar
    14    13    20   ar
    15    14    18    1
    16    14    17    1
    17    15    18   ar
    18    16    20    1
    19    16    23    1
    20    16    22    1
    21    16    21    1
    22    17    29    1
    23    17    28    1
    24    17    24    1
    25    18    19   ar
    26    19    20   ar
    27    21    32    1
    28    21    31    1
    29    21    30    1
    30    22    35    1
    31    22    34    1
    32    22    33    1
    33    23    38    1
    34    23    37    1
    35    23    36    1
    36    24    27    2
    37    24    26    1
    38    24    25    1
