@<TRIPOS>MOLECULE
/tmp/ewbell/vina_1vso_1vso_lig/vina/vina3.pdbqt
 28 28 0 0 0
SMALL
GASTEIGER

@<TRIPOS>ATOM
      1  O3        38.4130    4.7900    8.9360 O.3   499  INH499     -0.2390
      2  N2        38.9490    4.4010    7.6870 N.4   499  INH499     -0.2380
      3  H2        39.0120    3.4610    7.2950 H     499  INH499      0.1970
      4  C6        39.3470    5.5290    7.1470 C.2   499  INH499      0.1720
      5  C7        39.1110    6.6770    7.9710 C.2   499  INH499      0.0300
      6  C8        38.5100    6.1390    9.0920 C.3   499  INH499      0.0940
      7  C3        39.4890    8.0620    7.5360 C.3   499  INH499      0.0890
      8  C1        40.9760    8.4070    7.6640 C.3   499  INH499      0.2840
      9  N1        41.8540    7.4270    6.8720 N.4   499  INH499     -0.0650
     10  H1        41.9730    7.7680    5.9310 H     499  INH499      0.2750
     11  H3        42.7540    7.3480    7.3170 H     499  INH499      0.2750
     12  H2        41.4110    6.5220    6.8470 H     499  INH499      0.2750
     13  C2        41.4430    8.3810    9.1730 C.2   499  INH499      0.1710
     14  O2        41.2280    9.4050    9.8630 O.2   499  INH499     -0.6480
     15  O1        42.0090    7.3220    9.5850 O.3   499  INH499     -0.7750
     16  H         42.6980    7.3750   10.2180 H     499  INH499      0.1670
     17  O4        39.9150    5.6370    5.9310 O.2   499  INH499     -0.3220
     18  C5        39.0990    5.2750    4.7680 C.3   499  INH499      0.3010
     19  P1        39.8300    3.8080    3.9980 P.3   499  INH499      0.2600
     20  O7        40.4680    2.9820    5.1650 O.2   499  INH499     -0.6520
     21  O6        40.9350    4.3600    3.1390 O.3   499  INH499     -0.3280
     22  H         40.5860    4.5670    2.2580 H     499  INH499      0.2200
     23  O5        38.7750    3.0560    3.2710 O.3   499  INH499     -0.3280
     24  H         38.2800    3.6640    2.6990 H     499  INH499      0.2200
     25  C4        37.9280    6.6220   10.4250 C.3   499  INH499      0.0010
     26  C11       38.0370    8.1280   10.6260 C.3   499  INH499      0.0210
     27  C10       38.6160    5.9200   11.5910 C.3   499  INH499      0.0210
     28  C9        36.4250    6.2550   10.4350 C.3   499  INH499      0.0210
@<TRIPOS>BOND
     1    22    21    1
     2    24    23    1
     3    21    19    1
     4    23    19    1
     5    19    18    1
     6    19    20    2
     7    18    17    1
     8    17     4    1
     9    10     9    1
    10    12     9    1
    11     9    11    1
    12     9     8    1
    13     4     2    1
    14     4     5    2
    15     3     2    1
    16     7     8    1
    17     7     5    1
    18     8    13    1
    19     2     1    1
    20     5     6    1
    21     1     6    1
    22     6    25    1
    23    13    15    1
    24    13    14    2
    25    15    16    1
    26    25    28    1
    27    25    26    1
    28    25    27    1
