@<TRIPOS>MOLECULE
/tmp/ewbell/vina_1vso_1vso_lig/vina/vina5.pdbqt
 28 28 0 0 0
SMALL
GASTEIGER

@<TRIPOS>ATOM
      1  O3        38.9680    4.0890    7.5200 O.3   499  INH499     -0.2390
      2  N2        39.0390    4.5500    8.8540 N.4   499  INH499     -0.2380
      3  H2        38.9580    4.0050    9.7130 H     499  INH499      0.1970
      4  C6        39.2340    5.8430    8.7340 C.2   499  INH499      0.1720
      5  C7        39.2970    6.2920    7.3740 C.2   499  INH499      0.0300
      6  C8        39.1270    5.1270    6.6520 C.3   499  INH499      0.0940
      7  C3        39.5180    7.7320    7.0210 C.3   499  INH499      0.0890
      8  C1        40.9830    8.1690    6.9320 C.3   499  INH499      0.2840
      9  N1        41.9000    7.0000    6.5430 N.4   499  INH499     -0.0650
     10  H1        42.0930    6.4400    7.3590 H     499  INH499      0.2750
     11  H3        41.4420    6.4320    5.8480 H     499  INH499      0.2750
     12  H2        42.7630    7.3590    6.1700 H     499  INH499      0.2750
     13  C2        41.4900    8.7590    8.3080 C.2   499  INH499      0.1710
     14  O2        40.7560    9.5970    8.8820 O.2   499  INH499     -0.6480
     15  O1        42.6100    8.3440    8.7370 O.3   499  INH499     -0.7750
     16  H         43.3420    8.9280    8.7720 H     499  INH499      0.1670
     17  O4        39.3780    6.6940    9.7670 O.2   499  INH499     -0.3220
     18  C5        38.3590    6.6560   10.8210 C.3   499  INH499      0.3010
     19  P1        37.5610    8.2800   10.8940 P.3   499  INH499      0.2600
     20  O7        37.6910    8.7570   12.3800 O.2   499  INH499     -0.6520
     21  O6        36.1140    7.9890   10.6060 O.3   499  INH499     -0.3280
     22  H         36.0500    7.3960    9.8400 H     499  INH499      0.2200
     23  O5        38.2280    9.1990    9.9350 O.3   499  INH499     -0.3280
     24  H         38.7700    8.6850    9.3170 H     499  INH499      0.2200
     25  C4        39.0760    4.6840    5.1860 C.3   499  INH499      0.0010
     26  C11       39.3550    3.2000    4.9890 C.3   499  INH499      0.0210
     27  C10       40.0730    5.4860    4.3550 C.3   499  INH499      0.0210
     28  C9        37.6470    4.9660    4.6640 C.3   499  INH499      0.0210
@<TRIPOS>BOND
     1    27    25    1
     2    28    25    1
     3    26    25    1
     4    25     6    1
     5    11     9    1
     6    12     9    1
     7     9     8    1
     8     9    10    1
     9     6     5    1
    10     6     1    1
    11     8     7    1
    12     8    13    1
    13     7     5    1
    14     5     4    2
    15     1     2    1
    16    13    15    1
    17    13    14    2
    18     4     2    1
    19     4    17    1
    20    15    16    1
    21     2     3    1
    22    24    23    1
    23    17    18    1
    24    22    21    1
    25    23    19    1
    26    21    19    1
    27    18    19    1
    28    19    20    2
