@<TRIPOS>MOLECULE
/tmp/ewbell/vina_1vso_1vso_lig/vina/vina1.pdbqt
 28 28 0 0 0
SMALL
GASTEIGER

@<TRIPOS>ATOM
      1  O3        39.5970    6.2890    9.6310 O.3   499  INH499     -0.2390
      2  N2        38.9290    5.0450    9.5670 N.4   499  INH499     -0.2380
      3  H2        38.6360    4.4490   10.3410 H     499  INH499      0.1970
      4  C6        38.7720    4.8350    8.2810 C.2   499  INH499      0.1720
      5  C7        39.3060    5.8780    7.4570 C.2   499  INH499      0.0300
      6  C8        39.8120    6.7750    8.3770 C.3   499  INH499      0.0940
      7  C3        39.2260    5.8310    5.9600 C.3   499  INH499      0.0890
      8  C1        40.2390    4.9080    5.2770 C.3   499  INH499      0.2840
      9  N1        41.6760    5.4280    5.4380 N.4   499  INH499     -0.0650
     10  H1        41.8150    5.7410    6.3860 H     499  INH499      0.2750
     11  H3        42.3260    4.6860    5.2310 H     499  INH499      0.2750
     12  H2        41.8280    6.1970    4.8050 H     499  INH499      0.2750
     13  C2        39.9360    4.7660    3.7330 C.2   499  INH499      0.1710
     14  O2        38.7790    4.4140    3.4020 O.2   499  INH499     -0.6480
     15  O1        40.8880    5.0140    2.9310 O.3   499  INH499     -0.7750
     16  H         41.4560    4.3230    2.6510 H     499  INH499      0.1670
     17  O4        38.1610    3.7580    7.7510 O.2   499  INH499     -0.3220
     18  C5        37.1150    3.1120    8.5500 C.3   499  INH499      0.3010
     19  P1        37.8560    1.7090    9.4230 P.3   499  INH499      0.2600
     20  O7        38.2490    2.2430   10.8410 O.2   499  INH499     -0.6520
     21  O6        39.1150    1.4230    8.6510 O.3   499  INH499     -0.3280
     22  H         39.5210    2.2590    8.3740 H     499  INH499      0.2200
     23  O5        36.8770    0.5920    9.4790 O.3   499  INH499     -0.3280
     24  H         36.6780    0.2910    8.5790 H     499  INH499      0.2200
     25  C4        40.5190    8.1340    8.3830 C.3   499  INH499      0.0010
     26  C11       41.9320    8.0820    8.9500 C.3   499  INH499      0.0210
     27  C10       39.7080    9.1510    9.1800 C.3   499  INH499      0.0210
     28  C9        40.6200    8.6130    6.9150 C.3   499  INH499      0.0210
@<TRIPOS>BOND
     1    16    15    1
     2    15    13    1
     3    14    13    2
     4    13     8    1
     5    12     9    1
     6    11     9    1
     7     8     9    1
     8     8     7    1
     9     9    10    1
    10     7     5    1
    11    28    25    1
    12     5     4    2
    13     5     6    1
    14    17     4    1
    15    17    18    1
    16     4     2    1
    17    22    21    1
    18     6    25    1
    19     6     1    1
    20    25    26    1
    21    25    27    1
    22    18    19    1
    23    24    23    1
    24    21    19    1
    25    19    23    1
    26    19    20    2
    27     2     1    1
    28     2     3    1
