@<TRIPOS>MOLECULE
/tmp/ewbell/vina_1vso_1vso_lig/vina/vina2.pdbqt
 28 28 0 0 0
SMALL
GASTEIGER

@<TRIPOS>ATOM
      1  O3        38.3220    3.9810    8.8730 O.3   499  INH499     -0.2390
      2  N2        38.9610    3.9440    7.6120 N.4   499  INH499     -0.2380
      3  H2        39.1270    3.1330    7.0160 H     499  INH499      0.1970
      4  C6        39.2910    5.1940    7.3860 C.2   499  INH499      0.1720
      5  C7        38.9100    6.0900    8.4370 C.2   499  INH499      0.0300
      6  C8        38.2940    5.2570    9.3500 C.3   499  INH499      0.0940
      7  C3        39.1920    7.5610    8.3710 C.3   499  INH499      0.0890
      8  C1        40.2740    8.0660    9.3300 C.3   499  INH499      0.2840
      9  N1        39.9940    9.5030    9.7930 N.4   499  INH499     -0.0650
     10  H1        39.0930    9.7960    9.4500 H     499  INH499      0.2750
     11  H3        39.9990    9.5390   10.8000 H     499  INH499      0.2750
     12  H2        40.7070   10.1180    9.4310 H     499  INH499      0.2750
     13  C2        41.7020    8.0330    8.6530 C.2   499  INH499      0.1710
     14  O2        42.6730    8.4380    9.3340 O.2   499  INH499     -0.6480
     15  O1        41.7670    7.6010    7.4610 O.3   499  INH499     -0.7750
     16  H         42.4850    7.0610    7.1980 H     499  INH499      0.1670
     17  O4        39.9170    5.6310    6.2760 O.2   499  INH499     -0.3220
     18  C5        39.2060    5.4950    5.0010 C.3   499  INH499      0.3010
     19  P1        40.0270    4.2040    4.0310 P.3   499  INH499      0.2600
     20  O7        38.8920    3.4760    3.2360 O.2   499  INH499     -0.6520
     21  O6        40.5710    3.2600    5.0680 O.3   499  INH499     -0.3280
     22  H         41.3700    3.6410    5.4640 H     499  INH499      0.2200
     23  O5        41.0430    4.8280    3.1430 O.3   499  INH499     -0.3280
     24  H         40.6310    5.0660    2.2980 H     499  INH499      0.2200
     25  C4        37.5970    5.3630   10.7100 C.3   499  INH499      0.0010
     26  C11       36.3850    6.2840   10.7020 C.3   499  INH499      0.0210
     27  C10       38.5770    5.8500   11.7730 C.3   499  INH499      0.0210
     28  C9        37.1060    3.9460   11.0930 C.3   499  INH499      0.0210
@<TRIPOS>BOND
     1    24    23    1
     2    23    19    1
     3    20    19    2
     4    19    18    1
     5    19    21    1
     6    18    17    1
     7    21    22    1
     8    17     4    1
     9     3     2    1
    10    16    15    1
    11     4     2    1
    12     4     5    2
    13    15    13    1
    14     2     1    1
    15     7     5    1
    16     7     8    1
    17     5     6    1
    18    13     8    1
    19    13    14    2
    20     1     6    1
    21     8     9    1
    22     6    25    1
    23    12     9    1
    24    10     9    1
    25     9    11    1
    26    26    25    1
    27    25    28    1
    28    25    27    1
