@<TRIPOS>MOLECULE
/tmp/ewbell/vina_1vso_1vso_lig/vina/vina4.pdbqt
 28 28 0 0 0
SMALL
GASTEIGER

@<TRIPOS>ATOM
      1  O3        36.2330    4.9870    7.3980 O.3   499  INH499     -0.2390
      2  N2        37.2550    5.1560    8.3600 N.4   499  INH499     -0.2380
      3  H2        37.1900    5.0460    9.3720 H     499  INH499      0.1970
      4  C6        38.3080    5.4880    7.6510 C.2   499  INH499      0.1720
      5  C7        38.0550    5.5590    6.2420 C.2   499  INH499      0.0300
      6  C8        36.7180    5.2240    6.1480 C.3   499  INH499      0.0940
      7  C3        39.1260    5.9180    5.2570 C.3   499  INH499      0.0890
      8  C1        40.2310    4.8720    5.0790 C.3   499  INH499      0.2840
      9  N1        41.6090    5.4360    5.4550 N.4   499  INH499     -0.0650
     10  H1        41.5600    6.4410    5.4980 H     499  INH499      0.2750
     11  H3        41.8850    5.0740    6.3550 H     499  INH499      0.2750
     12  H2        42.2860    5.1610    4.7610 H     499  INH499      0.2750
     13  C2        40.2980    4.3570    3.5860 C.2   499  INH499      0.1710
     14  O2        39.7870    3.2400    3.3360 O.2   499  INH499     -0.6480
     15  O1        40.8700    5.1110    2.7400 O.3   499  INH499     -0.7750
     16  H         41.1760    5.9580    2.9990 H     499  INH499      0.1670
     17  O4        39.5290    5.7350    8.1630 O.2   499  INH499     -0.3220
     18  C5        39.6360    6.7840    9.1810 C.3   499  INH499      0.3010
     19  P1        41.1210    7.7590    8.8350 P.3   499  INH499      0.2600
     20  O7        42.1110    7.4710   10.0130 O.2   499  INH499     -0.6520
     21  O6        40.6530    9.1850    8.9360 O.3   499  INH499     -0.3280
     22  H         40.3340    9.3570    9.8360 H     499  INH499      0.2200
     23  O5        41.6720    7.3630    7.5120 O.3   499  INH499     -0.3280
     24  H         40.9470    7.2730    6.8730 H     499  INH499      0.2200
     25  C4        35.6570    5.0380    5.0580 C.3   499  INH499      0.0010
     26  C11       34.5740    4.0340    5.4280 C.3   499  INH499      0.0210
     27  C10       36.3090    4.5990    3.7510 C.3   499  INH499      0.0210
     28  C9        34.9710    6.4080    4.8400 C.3   499  INH499      0.0210
@<TRIPOS>BOND
     1    15    16    1
     2    15    13    1
     3    14    13    2
     4    13     8    1
     5    27    25    1
     6    12     9    1
     7    28    25    1
     8    25    26    1
     9    25     6    1
    10     8     7    1
    11     8     9    1
    12     7     5    1
    13     9    10    1
    14     9    11    1
    15     6     5    1
    16     6     1    1
    17     5     4    2
    18    24    23    1
    19     1     2    1
    20    23    19    1
    21     4    17    1
    22     4     2    1
    23    17    18    1
    24     2     3    1
    25    19    21    1
    26    19    18    1
    27    19    20    2
    28    21    22    1
