@<TRIPOS>MOLECULE
./ligand/2hzl_lig.pdb
 9 8 0 0 0
SMALL
GASTEIGER

@<TRIPOS>ATOM
      1  C1        63.0350   76.2620   27.3310 C.2   678  INH678      0.3937
      2  O1        63.8110   75.2510   27.5920 O.co2 678  INH678     -0.2429
      3  O2        63.5600   77.4570   27.2800 O.co2 678  INH678     -0.2429
      4  C2        61.6580   76.1090   27.1100 C.3   678  INH678      0.2430
      5  O3        60.9730   77.1310   26.6870 O.3   678  INH678     -0.2119
      6  C3        60.9450   74.8150   27.3390 C.3   678  INH678     -0.0185
      7  H1        59.8780   74.9370   27.1000 H     678  INH678      0.0265
      8  H2        61.0530   74.5180   28.3930 H     678  INH678      0.0265
      9  H3        61.3790   74.0380   26.6930 H     678  INH678      0.0265
@<TRIPOS>BOND
     1     5     4    1
     2     9     6    1
     3     7     6    1
     4     4     1    1
     5     4     6    1
     6     3     1   ar
     7     1     2   ar
     8     6     8    1
