@<TRIPOS>MOLECULE
/tmp/ewbell/vina_2hzl_2hzl_lig/vina/vina2.pdbqt
 8 7 0 0 0
SMALL
GASTEIGER

@<TRIPOS>ATOM
      1  C1        61.5980   75.1180   27.2630 C.2   678  INH678      0.1690
      2  O2        62.8470   75.4930   27.3480 O.2   678  INH678     -0.6480
      3  C2        60.6650   75.9750   26.6620 C.3   678  INH678      0.2110
      4  C3        59.3850   75.4820   26.0670 C.3   678  INH678      0.0500
      5  O3        60.9220   77.2500   26.6180 O.3   678  INH678     -0.3850
      6  H         61.8180   77.3870   26.2750 H     678  INH678      0.2100
      7  O1        61.2620   73.9570   27.7460 O.3   678  INH678     -0.7740
      8  H         60.7020   73.9060   28.4950 H     678  INH678      0.1670
@<TRIPOS>BOND
     1     4     3    1
     2     6     5    1
     3     5     3    1
     4     3     1    1
     5     1     2    2
     6     1     7    1
     7     7     8    1
