@<TRIPOS>MOLECULE
/tmp/ewbell/vina_2hzl_2hzl_lig/vina/vina5.pdbqt
 8 7 0 0 0
SMALL
GASTEIGER

@<TRIPOS>ATOM
      1  C1        60.8140   76.1690   26.6850 C.2   678  INH678      0.1690
      2  O2        59.6650   75.6920   26.2880 O.2   678  INH678     -0.6480
      3  C2        61.7400   75.3070   27.2920 C.3   678  INH678      0.2110
      4  C3        63.1590   75.7030   27.5510 C.3   678  INH678      0.0500
      5  O3        61.3530   74.1160   27.6420 O.3   678  INH678     -0.3850
      6  H         60.7070   74.1850   28.3610 H     678  INH678      0.2100
      7  O1        61.0590   77.4340   26.5080 O.3   678  INH678     -0.7740
      8  H         61.9270   77.7660   26.6300 H     678  INH678      0.1670
@<TRIPOS>BOND
     1     2     1    2
     2     7     8    1
     3     7     1    1
     4     1     3    1
     5     3     4    1
     6     3     5    1
     7     5     6    1
