@<TRIPOS>MOLECULE
/tmp/ewbell/vina_2hzl_2hzl_lig/vina/vina4.pdbqt
 8 7 0 0 0
SMALL
GASTEIGER

@<TRIPOS>ATOM
      1  C1        60.8710   75.1410   26.9400 C.2   678  INH678      0.1690
      2  O2        59.8720   75.0580   26.1030 O.2   678  INH678     -0.6480
      3  C2        61.5740   76.3500   27.0490 C.3   678  INH678      0.2110
      4  C3        62.9020   76.4500   27.7280 C.3   678  INH678      0.0500
      5  O3        61.0520   77.4280   26.5410 O.3   678  INH678     -0.3850
      6  H         61.6580   78.1730   26.6720 H     678  INH678      0.2100
      7  O1        61.1830   74.0920   27.6440 O.3   678  INH678     -0.7740
      8  H         61.0560   73.2340   27.2890 H     678  INH678      0.1670
@<TRIPOS>BOND
     1     2     1    2
     2     5     6    1
     3     5     3    1
     4     1     3    1
     5     1     7    1
     6     3     4    1
     7     8     7    1
