@<TRIPOS>MOLECULE
/tmp/ewbell/vina_2hzl_2hzl_lig/vina/vina1.pdbqt
 8 7 0 0 0
SMALL
GASTEIGER

@<TRIPOS>ATOM
      1  C1        63.0470   76.5130   27.2160 C.2   678  INH678      0.1690
      2  O2        63.7880   75.5390   27.6730 O.2   678  INH678     -0.6480
      3  C2        61.6540   76.3530   27.1790 C.3   678  INH678      0.2110
      4  C3        60.9710   75.1240   27.6860 C.3   678  INH678      0.0500
      5  O3        60.9250   77.3100   26.6820 O.3   678  INH678     -0.3850
      6  H         59.9880   77.1060   26.8190 H     678  INH678      0.2100
      7  O1        63.6310   77.6000   26.8040 O.3   678  INH678     -0.7740
      8  H         63.1310   78.3830   26.6820 H     678  INH678      0.1670
@<TRIPOS>BOND
     1     5     6    1
     2     5     3    1
     3     8     7    1
     4     7     1    1
     5     3     1    1
     6     3     4    1
     7     1     2    2
