@<TRIPOS>MOLECULE
/tmp/ewbell/vina_2hzl_2hzl_lig/vina/vina3.pdbqt
 8 7 0 0 0
SMALL
GASTEIGER

@<TRIPOS>ATOM
      1  C1        62.8380   76.2740   27.5270 C.2   678  INH678      0.1690
      2  O2        63.9680   75.7610   27.1170 O.2   678  INH678     -0.6480
      3  C2        61.6620   75.5170   27.4130 C.3   678  INH678      0.2110
      4  C3        60.3220   76.1420   27.1950 C.3   678  INH678      0.0500
      5  O3        61.7380   74.2220   27.5040 O.3   678  INH678     -0.3850
      6  H         61.4330   73.9410   28.3800 H     678  INH678      0.2100
      7  O1        62.8430   77.4760   28.0220 O.3   678  INH678     -0.7740
      8  H         62.5410   78.1970   27.5060 H     678  INH678      0.1670
@<TRIPOS>BOND
     1     2     1    2
     2     4     3    1
     3     3     5    1
     4     3     1    1
     5     5     6    1
     6     8     7    1
     7     1     7    1
