@<TRIPOS>MOLECULE
./ligand/3f48_lig.pdb
 13 12 0 0 0
SMALL
GASTEIGER

@<TRIPOS>ATOM
      1  N1        25.1770   32.4060   18.9430 N.4   1029  INH1029     0.2287
      2  C1        26.5080   31.7400   18.8570 C.3   1029  INH1029     0.0757
      3  C2        26.3760   30.3630   18.2020 C.2   1029  INH1029     0.4023
      4  O1        25.2540   30.0330   17.7530 O.co2 1029  INH1029    -0.2400
      5  C3        27.1090   31.6120   20.2560 C.3   1029  INH1029    -0.0110
      6  O2        27.3870   29.6240   18.1340 O.co2 1029  INH1029    -0.2400
      7  H1        24.4610   31.7660   18.6380 H     1029  INH1029     0.2002
      8  H2        27.1750   32.3600   18.2400 H     1029  INH1029     0.0967
      9  H3        26.4400   31.0110   20.8890 H     1029  INH1029     0.0290
     10  H4        27.2290   32.6130   20.6970 H     1029  INH1029     0.0290
     11  H5        28.0910   31.1200   20.1900 H     1029  INH1029     0.0290
     12  H6        24.9970   32.6830   19.9080 H     1029  INH1029     0.2002
     13  H7        25.1710   33.2230   18.3520 H     1029  INH1029     0.2002
@<TRIPOS>BOND
     1     4     3   ar
     2     6     3   ar
     3     3     2    1
     4     8     2    1
     5    13     1    1
     6     7     1    1
     7     2     1    1
     8     2     5    1
     9     1    12    1
    10    11     5    1
    11     5    10    1
    12     5     9    1
