@<TRIPOS>MOLECULE
/tmp/ewbell/vina_3f48_3f48_lig/vina/vina3.pdbqt
 10 9 0 0 0
SMALL
GASTEIGER

@<TRIPOS>ATOM
      1  C1        26.3180   31.4440   19.4350 C.3   1029  INH1029     0.2760
      2  C3        26.8020   30.5200   18.3180 C.3   1029  INH1029     0.0510
      3  N1        25.2570   32.3510   18.9090 N.4   1029  INH1029    -0.0660
      4  H7        24.9420   32.9620   19.6460 H     1029  INH1029     0.2750
      5  H1        25.6310   32.9020   18.1530 H     1029  INH1029     0.2750
      6  H6        24.4720   31.7950   18.5690 H     1029  INH1029     0.2750
      7  C2        27.4840   32.2570   20.0020 C.2   1029  INH1029     0.1710
      8  O1        28.2070   31.7170   20.8700 O.2   1029  INH1029    -0.6480
      9  O2        27.6750   33.4220   19.5770 O.3   1029  INH1029    -0.7750
     10  H         28.0720   33.5560   18.7390 H     1029  INH1029     0.1670
@<TRIPOS>BOND
     1     5     3    1
     2     2     1    1
     3     6     3    1
     4    10     9    1
     5     3     1    1
     6     3     4    1
     7     1     7    1
     8     9     7    1
     9     7     8    2
