@<TRIPOS>MOLECULE
/tmp/ewbell/vina_3f48_3f48_lig/vina/vina5.pdbqt
 10 9 0 0 0
SMALL
GASTEIGER

@<TRIPOS>ATOM
      1  C1        28.2400   23.1250   22.8880 C.3   1029  INH1029     0.2760
      2  C3        29.1840   22.3550   23.8110 C.3   1029  INH1029     0.0510
      3  N1        28.2630   24.5730   23.2440 N.4   1029  INH1029    -0.0660
      4  H7        27.6510   24.7370   24.0280 H     1029  INH1029     0.2750
      5  H1        29.2020   24.8430   23.4900 H     1029  INH1029     0.2750
      6  H6        27.9490   25.1240   22.4450 H     1029  INH1029     0.2750
      7  C2        26.8170   22.5710   22.9940 C.2   1029  INH1029     0.1710
      8  O1        26.5160   21.5870   22.2790 O.2   1029  INH1029    -0.6480
      9  O2        26.0120   23.1130   23.7890 O.3   1029  INH1029    -0.7750
     10  H         25.2920   22.6220   24.1340 H     1029  INH1029     0.1670
@<TRIPOS>BOND
     1     8     7    2
     2     6     3    1
     3     1     7    1
     4     1     3    1
     5     1     2    1
     6     7     9    1
     7     3     5    1
     8     3     4    1
     9     9    10    1
