@<TRIPOS>MOLECULE
/tmp/ewbell/vina_3f48_3f48_lig/vina/vina4.pdbqt
 10 9 0 0 0
SMALL
GASTEIGER

@<TRIPOS>ATOM
      1  C1        18.8700   21.2090   25.4660 C.3   1029  INH1029     0.2760
      2  C3        18.3180   21.2130   26.8910 C.3   1029  INH1029     0.0510
      3  N1        20.0810   20.3420   25.4000 N.4   1029  INH1029    -0.0660
      4  H7        20.7200   20.6010   26.1360 H     1029  INH1029     0.2750
      5  H1        19.8110   19.3780   25.5150 H     1029  INH1029     0.2750
      6  H6        20.5370   20.4620   24.4960 H     1029  INH1029     0.2750
      7  C2        19.2060   22.6330   25.0170 C.2   1029  INH1029     0.1710
      8  O1        19.5910   23.4470   25.8890 O.2   1029  INH1029    -0.6480
      9  O2        19.0910   22.9300   23.8040 O.3   1029  INH1029    -0.7750
     10  H         18.4370   23.5450   23.5330 H     1029  INH1029     0.1670
@<TRIPOS>BOND
     1    10     9    1
     2     9     7    1
     3     6     3    1
     4     7     1    1
     5     7     8    2
     6     3     1    1
     7     3     5    1
     8     3     4    1
     9     1     2    1
