@<TRIPOS>MOLECULE
/tmp/ewbell/vina_3f48_3f48_lig/vina/vina2.pdbqt
 10 9 0 0 0
SMALL
GASTEIGER

@<TRIPOS>ATOM
      1  C1        27.7960   32.1470   19.9750 C.3   1029  INH1029     0.2760
      2  C3        27.5100   31.3610   21.2530 C.3   1029  INH1029     0.0510
      3  N1        27.7190   33.6090   20.2590 N.4   1029  INH1029    -0.0660
      4  H7        26.9670   34.0160   19.7240 H     1029  INH1029     0.2750
      5  H1        27.5480   33.7520   21.2410 H     1029  INH1029     0.2750
      6  H6        28.6000   34.0530   19.9990 H     1029  INH1029     0.2750
      7  C2        26.8040   31.7630   18.8750 C.2   1029  INH1029     0.1710
      8  O1        27.2160   31.0360   17.9420 O.2   1029  INH1029    -0.6480
      9  O2        25.6230   32.1800   18.9500 O.3   1029  INH1029    -0.7750
     10  H         24.9290   31.6930   18.5510 H     1029  INH1029     0.1670
@<TRIPOS>BOND
     1     8     7    2
     2    10     9    1
     3     7     9    1
     4     7     1    1
     5     4     3    1
     6     1     3    1
     7     1     2    1
     8     6     3    1
     9     3     5    1
