@<TRIPOS>MOLECULE
/tmp/ewbell/vina_3f48_3f48_lig/vina/vina1.pdbqt
 10 9 0 0 0
SMALL
GASTEIGER

@<TRIPOS>ATOM
      1  C1        26.5160   31.7110   18.9070 C.3   1029  INH1029     0.2760
      2  C3        26.9940   31.4680   20.3380 C.3   1029  INH1029     0.0510
      3  N1        25.1580   32.3270   18.9310 N.4   1029  INH1029    -0.0660
      4  H7        25.2330   33.3150   18.7440 H     1029  INH1029     0.2750
      5  H1        24.5810   31.8950   18.2260 H     1029  INH1029     0.2750
      6  H6        24.7360   32.1850   19.8490 H     1029  INH1029     0.2750
      7  C2        26.4950   30.4000   18.1180 C.2   1029  INH1029     0.1710
      8  O1        27.3590   29.5360   18.3940 O.2   1029  INH1029    -0.6480
      9  O2        25.6190   30.2370   17.2350 O.3   1029  INH1029    -0.7750
     10  H         24.9490   29.5920   17.3540 H     1029  INH1029     0.1670
@<TRIPOS>BOND
     1     9    10    1
     2     9     7    1
     3     7     8    2
     4     7     1    1
     5     5     3    1
     6     4     3    1
     7     1     3    1
     8     1     2    1
     9     3     6    1
