@<TRIPOS>MOLECULE
./ligand/1xge_lig.pdb
 16 16 0 0 0
SMALL
GASTEIGER

@<TRIPOS>ATOM
      1  N1        25.2210   39.5770   72.5990 N.am  695  INH695     -0.2853
      2  C1        26.1050   40.7070   72.7980 C.3   695  INH695      0.1341
      3  C2        25.4200   41.9610   72.3630 C.2   695  INH695      0.3763
      4  O1        26.0130   43.0460   72.4880 O.co2 695  INH695     -0.2443
      5  C3        27.3820   40.5310   71.9870 C.3   695  INH695      0.0533
      6  C4        27.8820   39.1010   72.1160 C.2   695  INH695      0.2227
      7  O2        29.0800   38.8910   71.8900 O.2   695  INH695     -0.2753
      8  N2        27.0050   38.1320   72.5030 N.am  695  INH695     -0.2401
      9  O3        24.2740   41.8500   71.8910 O.co2 695  INH695     -0.2443
     10  H1        24.2510   39.7330   72.4150 H     695  INH695      0.1511
     11  H2        27.3650   37.2160   72.6810 H     695  INH695      0.1591
     12  H3        27.1760   40.7520   70.9290 H     695  INH695      0.0382
     13  H4        28.1510   41.2220   72.3630 H     695  INH695      0.0382
     14  H5        26.3610   40.7820   73.8650 H     695  INH695      0.0621
     15  C5        25.6880   38.3340   72.6590 C.2   695  INH695      0.3065
     16  O4        24.9080   37.3920   72.7780 O.2   695  INH695     -0.2524
@<TRIPOS>BOND
     1    12     5    1
     2     7     6    2
     3     9     3   ar
     4     5     6    1
     5     5    13    1
     6     5     2    1
     7     6     8   am
     8     3     4   ar
     9     3     2    1
    10    10     1    1
    11     8    15   am
    12     8    11    1
    13     1    15   am
    14     1     2    1
    15    15    16    2
    16     2    14    1
