@<TRIPOS>MOLECULE
/tmp/ewbell/vina_1xge_1xge_lig/vina/vina5.pdbqt
 14 14 0 0 0
SMALL
GASTEIGER

@<TRIPOS>ATOM
      1  N1        26.6130   41.0720   72.4580 N.am  695  INH695     -0.3280
      2  C1        27.2490   39.7860   72.2570 C.3   695  INH695      0.1930
      3  C3        27.3530   39.4710   70.7710 C.3   695  INH695      0.1390
      4  C4        26.0490   39.8270   70.0760 C.2   695  INH695      0.2280
      5  O2        25.8030   39.2690   68.9990 O.2   695  INH695     -0.2730
      6  N2        25.2040   40.7100   70.6800 N.am  695  INH695     -0.2790
      7  H1        27.0120   41.7280   73.0980 H     695  INH695      0.1650
      8  H2        24.3060   40.8600   70.2640 H     695  INH695      0.1730
      9  C5        25.5040   41.3880   71.7980 C.2   695  INH695      0.3230
     10  O4        24.8170   42.3360   72.1720 O.2   695  INH695     -0.2470
     11  C2        28.6210   39.8090   72.8480 C.2   695  INH695      0.1640
     12  O3        29.5700   40.0460   72.0780 O.2   695  INH695     -0.6480
     13  O1        28.7570   39.5940   74.0650 O.3   695  INH695     -0.7750
     14  H         29.2910   38.8810   74.3580 H     695  INH695      0.1670
@<TRIPOS>BOND
     1     5     4    2
     2     4     6   am
     3     4     3    1
     4     8     6    1
     5     6     9   am
     6     3     2    1
     7     9    10    2
     8     9     1   am
     9    12    11    2
    10     2     1    1
    11     2    11    1
    12     1     7    1
    13    11    13    1
    14    13    14    1
