@<TRIPOS>MOLECULE
/tmp/ewbell/vina_1xge_1xge_lig/vina/vina3.pdbqt
 14 14 0 0 0
SMALL
GASTEIGER

@<TRIPOS>ATOM
      1  N1        27.0810   38.8130   72.1870 N.am  695  INH695     -0.3280
      2  C1        27.5830   39.9650   71.4670 C.3   695  INH695      0.1930
      3  C3        27.0540   41.2510   72.0880 C.3   695  INH695      0.1390
      4  C4        25.5760   41.0990   72.4080 C.2   695  INH695      0.2280
      5  O2        24.9040   42.1320   72.5140 O.2   695  INH695     -0.2730
      6  N2        25.0560   39.8440   72.5290 N.am  695  INH695     -0.2790
      7  H1        27.7070   38.0770   72.4450 H     695  INH695      0.1650
      8  H2        24.0670   39.7540   72.6400 H     695  INH695      0.1730
      9  C5        25.7940   38.7240   72.5080 C.2   695  INH695      0.3230
     10  O4        25.3220   37.6430   72.8520 O.2   695  INH695     -0.2470
     11  C2        29.0760   39.9760   71.5200 C.2   695  INH695      0.1640
     12  O3        29.6850   39.8780   70.4390 O.2   695  INH695     -0.6480
     13  O1        29.6400   40.0820   72.6230 O.3   695  INH695     -0.7750
     14  H         29.4250   40.7950   73.1920 H     695  INH695      0.1670
@<TRIPOS>BOND
     1    12    11    2
     2     2    11    1
     3     2     3    1
     4     2     1    1
     5    11    13    1
     6     3     4    1
     7     1     7    1
     8     1     9   am
     9     4     5    2
    10     4     6   am
    11     9     6   am
    12     9    10    2
    13     6     8    1
    14    13    14    1
