@<TRIPOS>MOLECULE
/tmp/ewbell/vina_1xge_1xge_lig/vina/vina1.pdbqt
 14 14 0 0 0
SMALL
GASTEIGER

@<TRIPOS>ATOM
      1  N1        25.2410   39.5730   72.3900 N.am  695  INH695     -0.3280
      2  C1        25.7990   40.8490   72.7890 C.3   695  INH695      0.1930
      3  C3        27.3180   40.8180   72.6880 C.3   695  INH695      0.1390
      4  C4        27.8470   39.5100   73.2530 C.2   695  INH695      0.2280
      5  O2        29.0240   39.4850   73.6340 O.2   695  INH695     -0.2730
      6  N2        27.0000   38.4460   73.3460 N.am  695  INH695     -0.2790
      7  H1        24.4630   39.5470   71.7630 H     695  INH695      0.1650
      8  H2        27.3280   37.6230   73.8100 H     695  INH695      0.1730
      9  C5        25.7530   38.4370   72.8510 C.2   695  INH695      0.3230
     10  O4        25.1150   37.3910   72.7490 O.2   695  INH695     -0.2470
     11  C2        25.2720   41.9260   71.8990 C.2   695  INH695      0.1640
     12  O3        25.7030   43.0790   72.0830 O.2   695  INH695     -0.6480
     13  O1        24.4390   41.6320   71.0240 O.3   695  INH695     -0.7750
     14  H         24.0520   42.3060   70.5010 H     695  INH695      0.1670
@<TRIPOS>BOND
     1    14    13    1
     2    13    11    1
     3     7     1    1
     4    11    12    2
     5    11     2    1
     6     1     2    1
     7     1     9   am
     8     3     2    1
     9     3     4    1
    10    10     9    2
    11     9     6   am
    12     4     6   am
    13     4     5    2
    14     6     8    1
