@<TRIPOS>MOLECULE
/tmp/ewbell/vina_1xge_1xge_lig/vina/vina2.pdbqt
 14 14 0 0 0
SMALL
GASTEIGER

@<TRIPOS>ATOM
      1  N1        27.2840   40.7580   72.9300 N.am  695  INH695     -0.3280
      2  C1        26.1000   40.7690   72.0950 C.3   695  INH695      0.1930
      3  C3        25.0990   39.7290   72.5810 C.3   695  INH695      0.1390
      4  C4        25.8220   38.4340   72.9150 C.2   695  INH695      0.2280
      5  O2        25.1570   37.3910   72.9140 O.2   695  INH695     -0.2730
      6  N2        27.1610   38.4750   73.1640 N.am  695  INH695     -0.2790
      7  H1        27.6640   41.6210   73.2610 H     695  INH695      0.1650
      8  H2        27.6440   37.6080   73.2840 H     695  INH695      0.1730
      9  C5        27.8690   39.6110   73.2590 C.2   695  INH695      0.3230
     10  O4        29.0110   39.6140   73.7120 O.2   695  INH695     -0.2470
     11  C2        25.4640   42.1190   72.1460 C.2   695  INH695      0.1640
     12  O3        25.9740   42.9610   72.9080 O.2   695  INH695     -0.6480
     13  O1        24.4680   42.3440   71.4380 O.3   695  INH695     -0.7750
     14  H         24.0100   43.1580   71.5170 H     695  INH695      0.1670
@<TRIPOS>BOND
     1    13    14    1
     2    13    11    1
     3     2    11    1
     4     2     3    1
     5     2     1    1
     6    11    12    2
     7     3     4    1
     8     5     4    2
     9     4     6   am
    10     1     9   am
    11     1     7    1
    12     6     9   am
    13     6     8    1
    14     9    10    2
