@<TRIPOS>MOLECULE
/tmp/ewbell/vina_1xge_1xge_lig/vina/vina4.pdbqt
 14 14 0 0 0
SMALL
GASTEIGER

@<TRIPOS>ATOM
      1  N1        27.4090   41.3160   70.9170 N.am  695  INH695     -0.3280
      2  C1        26.4570   40.8240   71.8910 C.3   695  INH695      0.1930
      3  C3        27.1490   40.5530   73.2210 C.3   695  INH695      0.1390
      4  C4        28.4720   39.8440   72.9780 C.2   695  INH695      0.2280
      5  O2        28.9500   39.1890   73.9120 O.2   695  INH695     -0.2730
      6  N2        29.0480   39.9350   71.7460 N.am  695  INH695     -0.2790
      7  H1        27.1810   42.1120   70.3590 H     695  INH695      0.1650
      8  H2        29.8640   39.3850   71.5680 H     695  INH695      0.1730
      9  C5        28.5860   40.7170   70.7600 C.2   695  INH695      0.3230
     10  O4        29.2600   40.9460   69.7580 O.2   695  INH695     -0.2470
     11  C2        25.3830   41.8420   72.0990 C.2   695  INH695      0.1640
     12  O3        25.7360   42.9730   72.4780 O.2   695  INH695     -0.6480
     13  O1        24.2000   41.5220   71.8880 O.3   695  INH695     -0.7750
     14  H         23.6110   41.4050   72.6080 H     695  INH695      0.1670
@<TRIPOS>BOND
     1    10     9    2
     2     7     1    1
     3     9     1   am
     4     9     6   am
     5     1     2    1
     6     8     6    1
     7     6     4   am
     8    13    11    1
     9    13    14    1
    10     2    11    1
    11     2     3    1
    12    11    12    2
    13     4     3    1
    14     4     5    2
