@<TRIPOS>MOLECULE
./ligand/2c1q_lig.pdb
 31 32 0 0 0
SMALL
GASTEIGER

@<TRIPOS>ATOM
      1  C1        -6.8880   12.4590    8.9790 C.2   509  INH509      0.3560
      2  O1        -7.9430   11.7630    8.9240 O.co2 509  INH509     -0.2464
      3  O2        -6.6640   13.2550    8.0460 O.co2 509  INH509     -0.2464
      4  C2        -5.9290   12.3860   10.1680 C.3   509  INH509      0.0492
      5  C3        -4.6170   13.1360    9.9140 C.3   509  INH509     -0.0428
      6  C4        -3.6740   12.1340    9.2320 C.3   509  INH509     -0.0515
      7  C5        -2.3490   12.7340    8.7960 C.3   509  INH509     -0.0394
      8  C6        -1.5610   11.7360    7.9390 C.3   509  INH509      0.0255
      9  S1        -1.0550   10.3450    8.7830 S.3   509  INH509     -0.1536
     10  C7         0.1290   10.0140    7.4760 C.3   509  INH509      0.0143
     11  C8         0.6350   11.3050    6.9030 C.3   509  INH509      0.0529
     12  N1         1.8540   11.5970    7.6180 N.am  509  INH509     -0.2940
     13  C9         1.6650   12.6270    8.4250 C.2   509  INH509      0.3002
     14  O3         2.6810   13.1150    9.2310 O.2   509  INH509     -0.2528
     15  N2         0.4150   13.1100    8.3640 N.am  509  INH509     -0.2937
     16  C10       -0.3270   12.4060    7.3470 C.3   509  INH509      0.0555
     17  H1        -5.6980   11.3300   10.3700 H     509  INH509      0.0379
     18  H2        -6.4230   12.8270   11.0460 H     509  INH509      0.0379
     19  H3        -4.1840   13.4800   10.8650 H     509  INH509      0.0270
     20  H4        -4.7930   14.0010    9.2580 H     509  INH509      0.0270
     21  H5        -4.1810   11.7310    8.3430 H     509  INH509      0.0266
     22  H6        -3.4680   11.3160    9.9380 H     509  INH509      0.0266
     23  H7        -1.7580   12.9910    9.6870 H     509  INH509      0.0276
     24  H8        -2.5400   13.6440    8.2080 H     509  INH509      0.0276
     25  H9        -2.2170   11.4140    7.1170 H     509  INH509      0.0431
     26  H10       -0.3590    9.4290    6.6820 H     509  INH509      0.0395
     27  H11        0.9740    9.4410    7.8860 H     509  INH509      0.0395
     28  H12        0.7680   11.2630    5.8120 H     509  INH509      0.0525
     29  H13        2.7130   11.0950    7.5180 H     509  INH509      0.1506
     30  H14        0.0530   13.8460    8.9360 H     509  INH509      0.1506
     31  H15       -0.6070   13.0720    6.5180 H     509  INH509      0.0528
@<TRIPOS>BOND
     1     1     4    1
     2     1     3   ar
     3     1     2   ar
     4     4    18    1
     5     4    17    1
     6     4     5    1
     7     5    20    1
     8     5    19    1
     9     5     6    1
    10     6    22    1
    11     6    21    1
    12     6     7    1
    13     7    24    1
    14     7    23    1
    15     7     8    1
    16     8    25    1
    17     8    16    1
    18     8     9    1
    19     9    10    1
    20    10    27    1
    21    10    26    1
    22    10    11    1
    23    11    28    1
    24    11    16    1
    25    11    12    1
    26    12    29    1
    27    12    13   am
    28    13    15   am
    29    13    14    2
    30    15    30    1
    31    15    16    1
    32    16    31    1
