@<TRIPOS>MOLECULE
/tmp/ewbell/vina_2c1q_2c1q_lig/vina/vina5.pdbqt
 20 21 0 0 0
SMALL
GASTEIGER

@<TRIPOS>ATOM
      1  C6         3.6750   10.9140   -0.5020 C.3   509  INH509      0.0720
      2  S1         3.4260    9.2290   -0.4930 S.3   509  INH509     -0.1600
      3  C7         2.4020    9.3980   -1.9570 C.3   509  INH509      0.1010
      4  C8         2.9140   10.5180   -2.8140 C.3   509  INH509      0.1180
      5  N1         3.7910    9.8990   -3.7790 N.3   509  INH509     -0.3490
      6  C9         5.0460   10.2170   -3.5140 C.3   509  INH509      0.2130
      7  N2         5.1630   11.0110   -2.4380 N.3   509  INH509     -0.3490
      8  C10        3.8520   11.3580   -1.9490 C.3   509  INH509      0.1220
      9  H13        3.4920    9.3170   -4.5360 H     509  INH509      0.1630
     10  H14        6.0270   11.3140   -2.0370 H     509  INH509      0.1630
     11  C5         4.8680   11.3730    0.3450 C.3   509  INH509      0.0170
     12  C4         4.4650   12.5160    1.2600 C.3   509  INH509      0.0020
     13  C3         4.3190   13.8660    0.5430 C.3   509  INH509      0.0100
     14  C2         5.7430   14.3550    0.2540 C.3   509  INH509      0.1100
     15  C1         6.0890   14.3110   -1.2350 C.2   509  INH509      0.1390
     16  O2         6.9190   13.4820   -1.6570 O.2   509  INH509     -0.6500
     17  O1         5.5930   15.1270   -2.0630 O.3   509  INH509     -0.7760
     18  H          4.7340   15.4750   -1.9220 H     509  INH509      0.1670
     19  O3         6.0940    9.7510   -4.2910 O.3   509  INH509     -0.3330
     20  H3         6.9020    9.4380   -3.9030 H     509  INH509      0.2200
@<TRIPOS>BOND
     1     9     5    1
     2    19    20    1
     3    19     6    1
     4     5     6    1
     5     5     4    1
     6     6     7    1
     7     4     3    1
     8     4     8    1
     9     7    10    1
    10     7     8    1
    11    17    18    1
    12    17    15    1
    13     3     2    1
    14     8     1    1
    15    16    15    2
    16    15    14    1
    17     1     2    1
    18     1    11    1
    19    14    13    1
    20    11    12    1
    21    13    12    1
