@<TRIPOS>MOLECULE
/tmp/ewbell/vina_2c1q_2c1q_lig/vina/vina1.pdbqt
 20 21 0 0 0
SMALL
GASTEIGER

@<TRIPOS>ATOM
      1  C6        -1.7150   11.6440    8.0680 C.3   509  INH509      0.0720
      2  S1        -1.1350   10.2690    8.8910 S.3   509  INH509     -0.1600
      3  C7        -0.0350    9.9390    7.5110 C.3   509  INH509      0.1010
      4  C8         0.4140   11.2300    6.8930 C.3   509  INH509      0.1180
      5  N1         1.6730   11.5460    7.5240 N.3   509  INH509     -0.3490
      6  C9         1.5240   12.5810    8.3300 C.3   509  INH509      0.2130
      7  N2         0.2660   13.0480    8.3470 N.3   509  INH509     -0.3490
      8  C10       -0.5310   12.3230    7.3890 C.3   509  INH509      0.1220
      9  H13        2.5310   11.0530    7.3720 H     509  INH509      0.1630
     10  H14       -0.0680   13.7850    8.9350 H     509  INH509      0.1630
     11  C5        -2.4580   12.6410    8.9650 C.3   509  INH509      0.0170
     12  C4        -3.8590   12.1430    9.2700 C.3   509  INH509      0.0020
     13  C3        -4.7600   13.1890    9.9420 C.3   509  INH509      0.0100
     14  C2        -6.1090   12.5030   10.1850 C.3   509  INH509      0.1100
     15  C1        -7.0210   12.5480    8.9590 C.2   509  INH509      0.1390
     16  O2        -6.7610   13.3220    8.0170 O.2   509  INH509     -0.6500
     17  O1        -8.0740   11.8530    8.8810 O.3   509  INH509     -0.7760
     18  H         -8.3830   11.3830    9.6310 H     509  INH509      0.1670
     19  O3         2.5840   13.0910    9.0630 O.3   509  INH509     -0.3330
     20  H3         2.5120   13.9090    9.5410 H     509  INH509      0.2200
@<TRIPOS>BOND
     1     4     8    1
     2     4     3    1
     3     4     5    1
     4     9     5    1
     5     8     1    1
     6     8     7    1
     7     3     2    1
     8     5     6    1
     9    16    15    2
    10     1     2    1
    11     1    11    1
    12     6     7    1
    13     6    19    1
    14     7    10    1
    15    17    15    1
    16    17    18    1
    17    15    14    1
    18    11    12    1
    19    19    20    1
    20    12    13    1
    21    13    14    1
