@<TRIPOS>MOLECULE
/tmp/ewbell/vina_2c1q_2c1q_lig/vina/vina3.pdbqt
 20 21 0 0 0
SMALL
GASTEIGER

@<TRIPOS>ATOM
      1  C6         5.7500   11.5990   -1.2750 C.3   509  INH509      0.0720
      2  S1         7.2240   11.4770   -0.4300 S.3   509  INH509     -0.1600
      3  C7         7.0530   13.1930    0.0650 C.3   509  INH509      0.1010
      4  C8         5.6040   13.5320    0.2490 C.3   509  INH509      0.1180
      5  N1         5.3350   13.3400    1.6540 N.3   509  INH509     -0.3490
      6  C9         4.5750   12.2720    1.8230 C.3   509  INH509      0.2130
      7  N2         4.2670   11.6660    0.6660 N.3   509  INH509     -0.3490
      8  C10        4.7910   12.4350   -0.4360 C.3   509  INH509      0.1220
      9  H13        5.6740   13.9280    2.3890 H     509  INH509      0.1630
     10  H14        3.7540   10.8120    0.5820 H     509  INH509      0.1630
     11  C5         5.1140   10.2470   -1.6220 C.3   509  INH509      0.0170
     12  C4         4.3660   10.3310   -2.9400 C.3   509  INH509      0.0020
     13  C3         2.8540   10.5510   -2.7850 C.3   509  INH509      0.0100
     14  C2         2.2590    9.1930   -2.4000 C.3   509  INH509      0.1100
     15  C1         1.5380    9.2270   -1.0520 C.2   509  INH509      0.1390
     16  O2         2.1520    9.5800   -0.0250 O.2   509  INH509     -0.6500
     17  O1         0.3340    8.8610   -0.9260 O.3   509  INH509     -0.7760
     18  H         -0.3580    9.4870   -1.0160 H     509  INH509      0.1670
     19  O3         4.1680   11.8610    3.0830 O.3   509  INH509     -0.3330
     20  H3         3.2520   11.8460    3.3310 H     509  INH509      0.2200
@<TRIPOS>BOND
     1    12    13    1
     2    12    11    1
     3    13    14    1
     4    14    15    1
     5    11     1    1
     6     1     8    1
     7     1     2    1
     8    15    17    1
     9    15    16    2
    10    18    17    1
    11     8     4    1
    12     8     7    1
    13     2     3    1
    14     3     4    1
    15     4     5    1
    16    10     7    1
    17     7     6    1
    18     5     6    1
    19     5     9    1
    20     6    19    1
    21    19    20    1
