@<TRIPOS>MOLECULE
/tmp/ewbell/vina_2c1q_2c1q_lig/vina/vina4.pdbqt
 20 21 0 0 0
SMALL
GASTEIGER

@<TRIPOS>ATOM
      1  C6         4.6620   11.6070   -0.3730 C.3   509  INH509      0.0720
      2  S1         5.1870   10.0120   -0.0810 S.3   509  INH509     -0.1600
      3  C7         3.4780    9.4670   -0.1340 C.3   509  INH509      0.1010
      4  C8         2.7040   10.3020   -1.1100 C.3   509  INH509      0.1180
      5  N1         2.7350    9.5720   -2.3550 N.3   509  INH509     -0.3490
      6  C9         3.5090   10.1980   -3.2230 C.3   509  INH509      0.2130
      7  N2         4.0490   11.3200   -2.7210 N.3   509  INH509     -0.3490
      8  C10        3.5330   11.5530   -1.3950 C.3   509  INH509      0.1220
      9  H13        2.2430    8.7190   -2.5340 H     509  INH509      0.1630
     10  H14        4.7090   11.9040   -3.1940 H     509  INH509      0.1630
     11  C5         5.7710   12.5500   -0.8540 C.3   509  INH509      0.0170
     12  C4         6.9400   12.5380    0.1150 C.3   509  INH509      0.0020
     13  C3         8.2940   12.2440   -0.5460 C.3   509  INH509      0.0100
     14  C2         9.1890   11.6580    0.5510 C.3   509  INH509      0.1100
     15  C1         8.8040   10.2250    0.9220 C.2   509  INH509      0.1390
     16  O2         8.8590    9.3230    0.0620 O.2   509  INH509     -0.6500
     17  O1         8.3810    9.9210    2.0740 O.3   509  INH509     -0.7760
     18  H          8.8410   10.2170    2.8350 H     509  INH509      0.1670
     19  O3         3.7140    9.7070   -4.5030 O.3   509  INH509     -0.3330
     20  H3         3.0620    9.1740   -4.9420 H     509  INH509      0.2200
@<TRIPOS>BOND
     1    20    19    1
     2    19     6    1
     3     6     7    1
     4     6     5    1
     5    10     7    1
     6     7     8    1
     7     9     5    1
     8     5     4    1
     9     8     4    1
    10     8     1    1
    11     4     3    1
    12    11     1    1
    13    11    12    1
    14    13    12    1
    15    13    14    1
    16     1     2    1
    17     3     2    1
    18    16    15    2
    19    14    15    1
    20    15    17    1
    21    17    18    1
