@<TRIPOS>MOLECULE
/tmp/ewbell/vina_2c1q_2c1q_lig/vina/vina2.pdbqt
 20 21 0 0 0
SMALL
GASTEIGER

@<TRIPOS>ATOM
      1  C6        11.6290    5.7600    1.3040 C.3   509  INH509      0.0720
      2  S1        11.4770    7.2480    0.4880 S.3   509  INH509     -0.1600
      3  C7        13.2070    7.1410    0.0250 C.3   509  INH509      0.1010
      4  C8        13.5960    5.7070   -0.1830 C.3   509  INH509      0.1180
      5  N1        13.4390    5.4630   -1.5970 N.3   509  INH509     -0.3490
      6  C9        12.4000    4.6740   -1.8040 C.3   509  INH509      0.2130
      7  N2        11.7810    4.3230   -0.6660 N.3   509  INH509     -0.3490
      8  C10       12.5110    4.8460    0.4620 C.3   509  INH509      0.1220
      9  H13       14.0310    5.8360   -2.3130 H     509  INH509      0.1630
     10  H14       10.9420    3.7820   -0.6100 H     509  INH509      0.1630
     11  C5        10.2910    5.0760    1.6100 C.3   509  INH509      0.0170
     12  C4        10.3720    4.3030    2.9140 C.3   509  INH509      0.0020
     13  C3        10.5160    2.7860    2.7310 C.3   509  INH509      0.0100
     14  C2         9.8000    2.4410    1.4200 C.3   509  INH509      0.1100
     15  C1         8.8130    1.2840    1.5760 C.2   509  INH509      0.1390
     16  O2         7.6960    1.4840    2.0950 O.2   509  INH509     -0.6500
     17  O1         9.1050    0.1020    1.2360 O.3   509  INH509     -0.7760
     18  H          9.4090   -0.5090    1.8790 H     509  INH509      0.1670
     19  O3        12.0260    4.2830   -3.0800 O.3   509  INH509     -0.3330
     20  H3        12.2870    4.7740   -3.8490 H     509  INH509      0.2200
@<TRIPOS>BOND
     1    20    19    1
     2    19     6    1
     3     9     5    1
     4     6     5    1
     5     6     7    1
     6     5     4    1
     7     7    10    1
     8     7     8    1
     9     4     3    1
    10     4     8    1
    11     3     2    1
    12     8     1    1
    13     2     1    1
    14    17    15    1
    15    17    18    1
    16     1    11    1
    17    14    15    1
    18    14    13    1
    19    15    16    2
    20    11    12    1
    21    13    12    1
