@<TRIPOS>MOLECULE
./ligand/1z95_lig.pdb
 43 44 0 0 0
SMALL
GASTEIGER

@<TRIPOS>ATOM
      1  C1        29.1850    1.4670    9.0150 C.ar  243  INH243     -0.0342
      2  C2        28.7480    1.3070   10.3270 C.ar  243  INH243     -0.0247
      3  C3        29.5430    0.6260   11.2440 C.ar  243  INH243      0.1235
      4  F1        29.1270    0.4660   12.5160 F     243  INH243     -0.2055
      5  C4        30.7730    0.1070   10.8520 C.ar  243  INH243     -0.0247
      6  C5        31.2100    0.2690    9.5410 C.ar  243  INH243     -0.0342
      7  C6        30.4160    0.9480    8.6230 C.ar  243  INH243      0.0885
      8  S1        30.9610    1.1230    6.9710 S.O2  243  INH243      0.0001
      9  O1        30.5010    2.4500    6.4430 O.2   243  INH243     -0.1693
     10  O2        32.4580    1.0530    6.9270 O.2   243  INH243     -0.1693
     11  C7        30.2570   -0.2330    5.9620 C.3   243  INH243      0.1078
     12  C8        29.6810    0.2030    4.6120 C.3   243  INH243      0.1583
     13  O3        30.6660    0.9590    3.9030 O.3   243  INH243     -0.3780
     14  C9        29.2760   -1.0210    3.7880 C.3   243  INH243     -0.0259
     15  C10       28.4490    1.0870    4.8230 C.2   243  INH243      0.2503
     16  O4        27.4440    0.6410    5.3760 O.2   243  INH243     -0.2723
     17  N1        28.6250    2.3570    4.4660 N.am  243  INH243     -0.2831
     18  C11       27.7060    3.3220    4.5180 C.ar  243  INH243      0.0341
     19  C12       26.3660    3.0880    4.8190 C.ar  243  INH243     -0.0276
     20  C13       28.0950    4.6030    4.1420 C.ar  243  INH243     -0.0392
     21  C14       27.1500    5.6220    4.0830 C.ar  243  INH243     -0.0421
     22  C15       25.8150    5.3730    4.3880 C.ar  243  INH243      0.0635
     23  C16       24.9330    6.4990    4.3240 C.1   243  INH243      0.0997
     24  N2        24.2430    7.4020    4.2630 N.1   243  INH243     -0.1909
     25  C17       25.3950    4.0900    4.7550 C.ar  243  INH243      0.0739
     26  C18       23.9310    3.7310    5.0750 C.3   243  INH243      0.4187
     27  F2        23.7140    3.8720    6.3790 F     243  INH243     -0.1659
     28  F3        23.0300    4.4730    4.4370 F     243  INH243     -0.1659
     29  F4        23.6400    2.4740    4.7490 F     243  INH243     -0.1659
     30  H1        28.5670    1.9960    8.2990 H     243  INH243      0.0637
     31  H2        27.7900    1.7120   10.6340 H     243  INH243      0.0647
     32  H3        31.3910   -0.4230   11.5680 H     243  INH243      0.0647
     33  H4        32.1690   -0.1340    9.2350 H     243  INH243      0.0637
     34  H5        29.4510   -0.7070    6.5410 H     243  INH243      0.0538
     35  H6        31.0530   -0.9680    5.7730 H     243  INH243      0.0538
     36  H7        30.3130    1.2320    3.0640 H     243  INH243      0.2109
     37  H8        28.8650   -0.6930    2.8220 H     243  INH243      0.0263
     38  H9        28.5140   -1.5950    4.3350 H     243  INH243      0.0263
     39  H10       30.1580   -1.6550    3.6140 H     243  INH243      0.0263
     40  H11       29.5310    2.6110    4.1270 H     243  INH243      0.1549
     41  H12       26.0650    2.0890    5.1140 H     243  INH243      0.0642
     42  H13       29.1310    4.8070    3.8960 H     243  INH243      0.0636
     43  H14       27.4570    6.6210    3.7960 H     243  INH243      0.0631
@<TRIPOS>BOND
     1     1    30    1
     2     1     7   ar
     3     1     2   ar
     4     2    31    1
     5     2     3   ar
     6     3     5   ar
     7     3     4    1
     8     5    32    1
     9     5     6   ar
    10     6    33    1
    11     6     7   ar
    12     7     8    1
    13     8    11    1
    14     8    10    2
    15     8     9    2
    16    11    35    1
    17    11    34    1
    18    11    12    1
    19    12    15    1
    20    12    14    1
    21    12    13    1
    22    13    36    1
    23    14    39    1
    24    14    38    1
    25    14    37    1
    26    15    17   am
    27    15    16    2
    28    17    40    1
    29    17    18    1
    30    18    20   ar
    31    18    19   ar
    32    19    41    1
    33    19    25   ar
    34    20    21   ar
    35    20    42    1
    36    21    22   ar
    37    21    43    1
    38    22    25   ar
    39    22    23    1
    40    23    24    3
    41    25    26    1
    42    26    29    1
    43    26    28    1
    44    26    27    1
