@<TRIPOS>MOLECULE
/tmp/ewbell/vina_1z95_1z95_lig/vina/vina2.pdbqt
 31 32 0 0 0
SMALL
GASTEIGER

@<TRIPOS>ATOM
      1  C11       27.3280    3.2910    3.7760 C.ar  243  INH243      0.0350
      2  C12       25.9940    3.0690    4.1070 C.ar  243  INH243      0.0470
      3  C13       27.8150    4.5930    3.7900 C.ar  243  INH243      0.0310
      4  C14       26.9700    5.6420    4.1430 C.ar  243  INH243      0.0260
      5  C15       25.6400    5.4030    4.4730 C.ar  243  INH243      0.0590
      6  C16       24.8680    6.5490    4.8490 C.1   243  INH243      0.1000
      7  N2        24.2660    7.4700    5.1390 N.1   243  INH243     -0.1910
      8  C17       25.1210    4.1040    4.4520 C.ar  243  INH243      0.0700
      9  C18       23.6530    3.7660    4.7730 C.3   243  INH243      0.4190
     10  F4        23.3500    2.5060    4.4700 F     243  INH243     -0.1660
     11  F3        22.7610    4.5040    4.1180 F     243  INH243     -0.1660
     12  F2        23.4320    3.9340    6.0730 F     243  INH243     -0.1660
     13  N1        28.1450    2.3320    3.3390 N.am  243  INH243     -0.3250
     14  C10       28.7960    1.4520    4.0950 C.2   243  INH243      0.2570
     15  O4        29.5370    0.5650    3.6690 O.2   243  INH243     -0.2700
     16  H11       28.2810    2.2680    2.3500 H     243  INH243      0.1690
     17  C8        28.4490    1.5310    5.5840 C.3   243  INH243      0.1480
     18  C9        28.9630    2.8600    6.1410 C.3   243  INH243      0.0570
     19  C7        29.0830    0.3590    6.3380 C.3   243  INH243      0.1930
     20  S1        30.5930    0.7810    7.2850 S.O2  243  INH243      0.1780
     21  O2        31.6600   -0.2330    7.0010 O.2   243  INH243     -0.2220
     22  O1        31.0780    2.1470    6.8970 O.2   243  INH243     -0.2220
     23  C6        30.2180    0.7730    8.9920 C.ar  243  INH243      0.0590
     24  C1        29.1170    1.4780    9.4710 C.ar  243  INH243      0.0260
     25  C2        28.8120    1.4520   10.8300 C.ar  243  INH243      0.0440
     26  C3        29.6070    0.7180   11.7050 C.ar  243  INH243      0.1160
     27  C4        30.7070    0.0130   11.2240 C.ar  243  INH243      0.0440
     28  F1        29.3190    0.6870   13.0210 F     243  INH243     -0.2060
     29  C5        31.0130    0.0430    9.8680 C.ar  243  INH243      0.0260
     30  O3        27.0280    1.4650    5.7230 O.3   243  INH243     -0.3800
     31  H7        26.7270    0.5920    5.4980 H     243  INH243      0.2110
@<TRIPOS>BOND
     1    16    13    1
     2    13     1    1
     3    13    14   am
     4    15    14    2
     5     1     3   ar
     6     1     2   ar
     7     3     4   ar
     8    14    17    1
     9     2     8   ar
    10    11     9    1
    11     4     5   ar
    12     8     5   ar
    13     8     9    1
    14    10     9    1
    15     5     6    1
    16     9    12    1
    17     6     7    3
    18    31    30    1
    19    17    30    1
    20    17    18    1
    21    17    19    1
    22    19    20    1
    23    22    20    2
    24    21    20    2
    25    20    23    1
    26    23    24   ar
    27    23    29   ar
    28    24    25   ar
    29    29    27   ar
    30    25    26   ar
    31    27    26   ar
    32    26    28    1
