@<TRIPOS>MOLECULE
/tmp/ewbell/vina_1z95_1z95_lig/vina/vina4.pdbqt
 31 32 0 0 0
SMALL
GASTEIGER

@<TRIPOS>ATOM
      1  C11       22.8180   15.5110    5.3670 C.ar  243  INH243      0.0350
      2  C12       21.7610   14.8720    6.0090 C.ar  243  INH243      0.0470
      3  C13       22.7530   16.8860    5.1740 C.ar  243  INH243      0.0310
      4  C14       21.6470   17.5960    5.6320 C.ar  243  INH243      0.0260
      5  C15       20.5990   16.9430    6.2740 C.ar  243  INH243      0.0590
      6  C16       19.5240   17.7720    6.7300 C.1   243  INH243      0.1000
      7  N2        18.6750   18.4430    7.0810 N.1   243  INH243     -0.1910
      8  C17       20.6330   15.5570    6.4660 C.ar  243  INH243      0.0700
      9  C18       19.4970   14.7620    7.1370 C.3   243  INH243      0.4190
     10  F4        18.8450   13.9900    6.2710 F     243  INH243     -0.1660
     11  F3        18.5590   15.5140    7.7070 F     243  INH243     -0.1660
     12  F2        20.0040   13.9740    8.0800 F     243  INH243     -0.1660
     13  N1        23.8490   14.8600    4.8270 N.am  243  INH243     -0.3250
     14  C10       24.8420   14.2740    5.4910 C.2   243  INH243      0.2570
     15  O4        25.7790   13.6670    4.9730 O.2   243  INH243     -0.2700
     16  H11       23.8790   14.8070    3.8280 H     243  INH243      0.1690
     17  C8        24.6690   14.2900    7.0120 C.3   243  INH243      0.1480
     18  C9        26.0380   14.0920    7.6670 C.3   243  INH243      0.0570
     19  C7        23.7070   13.1820    7.4470 C.3   243  INH243      0.1930
     20  S1        24.5140   11.6990    8.1590 S.O2  243  INH243      0.1780
     21  O2        24.0480   10.4780    7.4260 O.2   243  INH243     -0.2220
     22  O1        26.0050   11.8200    8.0440 O.2   243  INH243     -0.2220
     23  C6        24.0820   11.5690    9.8480 C.ar  243  INH243      0.0590
     24  C1        23.7970   12.7130   10.5890 C.ar  243  INH243      0.0260
     25  C2        23.4350   12.6000   11.9290 C.ar  243  INH243      0.0440
     26  C3        23.3550   11.3440   12.5230 C.ar  243  INH243      0.1160
     27  C4        23.6390   10.2020   11.7800 C.ar  243  INH243      0.0440
     28  F1        23.0040   11.2270   13.8190 F     243  INH243     -0.2060
     29  C5        24.0040   10.3150   10.4430 C.ar  243  INH243      0.0260
     30  O3        24.1290   15.5580    7.3940 O.3   243  INH243     -0.3800
     31  H7        23.5250   15.4400    8.1180 H     243  INH243      0.2110
@<TRIPOS>BOND
     1    16    13    1
     2    13     1    1
     3    13    14   am
     4    15    14    2
     5     3     1   ar
     6     3     4   ar
     7     1     2   ar
     8    14    17    1
     9     4     5   ar
    10     2     8   ar
    11    10     9    1
    12     5     8   ar
    13     5     6    1
    14     8     9    1
    15     6     7    3
    16    17    30    1
    17    17    19    1
    18    17    18    1
    19     9    11    1
    20     9    12    1
    21    30    31    1
    22    21    20    2
    23    19    20    1
    24    22    20    2
    25    20    23    1
    26    23    29   ar
    27    23    24   ar
    28    29    27   ar
    29    24    25   ar
    30    27    26   ar
    31    25    26   ar
    32    26    28    1
