@<TRIPOS>MOLECULE
/tmp/ewbell/vina_1z95_1z95_lig/vina/vina5.pdbqt
 31 32 0 0 0
SMALL
GASTEIGER

@<TRIPOS>ATOM
      1  C11       27.1760    0.8980    3.4400 C.ar  243  INH243      0.0350
      2  C12       27.5370    2.2320    3.6120 C.ar  243  INH243      0.0470
      3  C13       25.9580    0.4630    3.9510 C.ar  243  INH243      0.0310
      4  C14       25.1240    1.3620    4.6090 C.ar  243  INH243      0.0260
      5  C15       25.4990    2.6920    4.7710 C.ar  243  INH243      0.0590
      6  C16       24.5550    3.5370    5.4360 C.1   243  INH243      0.1000
      7  N2        23.7960    4.1950    5.9730 N.1   243  INH243     -0.1910
      8  C17       26.7260    3.1520    4.2800 C.ar  243  INH243      0.0700
      9  C18       27.2230    4.6000    4.4490 C.3   243  INH243      0.4190
     10  F4        28.3720    4.6610    5.1200 F     243  INH243     -0.1660
     11  F3        26.3900    5.3950    5.1140 F     243  INH243     -0.1660
     12  F2        27.4240    5.1440    3.2530 F     243  INH243     -0.1660
     13  N1        27.9820   -0.0180    2.9040 N.am  243  INH243     -0.3250
     14  C10       29.0290   -0.5860    3.4990 C.2   243  INH243      0.2570
     15  O4        29.7540   -1.4410    2.9900 O.2   243  INH243     -0.2700
     16  H11       27.7820   -0.3060    1.9680 H     243  INH243      0.1690
     17  C8        29.2030   -0.1890    4.9670 C.3   243  INH243      0.1480
     18  C9        27.8610   -0.3430    5.6840 C.3   243  INH243      0.0570
     19  C7        29.6960    1.2570    5.0690 C.3   243  INH243      0.1930
     20  S1        31.0380    1.5280    6.2850 S.O2  243  INH243      0.1780
     21  O2        32.1930    0.6290    5.9630 O.2   243  INH243     -0.2220
     22  O1        31.4860    2.9600    6.2460 O.2   243  INH243     -0.2220
     23  C6        30.4400    1.1620    7.8860 C.ar  243  INH243      0.0590
     24  C1        29.3950    1.9040    8.4310 C.ar  243  INH243      0.0260
     25  C2        28.9100    1.5950    9.6990 C.ar  243  INH243      0.0440
     26  C3        29.4700    0.5430   10.4180 C.ar  243  INH243      0.1160
     27  C4        30.5140   -0.1980    9.8720 C.ar  243  INH243      0.0440
     28  F1        29.0060    0.2360   11.6460 F     243  INH243     -0.2060
     29  C5        31.0000    0.1140    8.6070 C.ar  243  INH243      0.0260
     30  O3        30.1720   -1.0580    5.5600 O.3   243  INH243     -0.3800
     31  H7        30.5060   -0.6630    6.3580 H     243  INH243      0.2110
@<TRIPOS>BOND
     1    16    13    1
     2    13     1    1
     3    13    14   am
     4    15    14    2
     5    12     9    1
     6     1     2   ar
     7     1     3   ar
     8    14    17    1
     9     2     8   ar
    10     3     4   ar
    11     8     9    1
    12     8     5   ar
    13     9    11    1
    14     9    10    1
    15     4     5   ar
    16     5     6    1
    17    17    19    1
    18    17    30    1
    19    17    18    1
    20    19    20    1
    21     6     7    3
    22    30    31    1
    23    21    20    2
    24    22    20    2
    25    20    23    1
    26    23    24   ar
    27    23    29   ar
    28    24    25   ar
    29    29    27   ar
    30    25    26   ar
    31    27    26   ar
    32    26    28    1
