@<TRIPOS>MOLECULE
/tmp/ewbell/vina_1z95_1z95_lig/vina/vina3.pdbqt
 31 32 0 0 0
SMALL
GASTEIGER

@<TRIPOS>ATOM
      1  C11       26.9300    2.2980    3.7590 C.ar  243  INH243      0.0350
      2  C12       26.7910    3.6810    3.8450 C.ar  243  INH243      0.0470
      3  C13       25.8330    1.4940    4.0510 C.ar  243  INH243      0.0310
      4  C14       24.6240    2.0810    4.4110 C.ar  243  INH243      0.0260
      5  C15       24.5010    3.4650    4.4920 C.ar  243  INH243      0.0590
      6  C16       23.2060    3.9630    4.8430 C.1   243  INH243      0.1000
      7  N2        22.1720    4.3440    5.1300 N.1   243  INH243     -0.1910
      8  C17       25.5930    4.2950    4.2180 C.ar  243  INH243      0.0700
      9  C18       25.5430    5.8310    4.3180 C.3   243  INH243      0.4190
     10  F4        25.2120    6.2440    5.5390 F     243  INH243     -0.1660
     11  F3        24.6610    6.4080    3.5060 F     243  INH243     -0.1660
     12  F2        26.7380    6.3350    4.0300 F     243  INH243     -0.1660
     13  N1        28.0910    1.6910    3.5130 N.am  243  INH243     -0.3250
     14  C10       29.1550    1.6790    4.3120 C.2   243  INH243      0.2570
     15  O4        30.2150    1.1010    4.0710 O.2   243  INH243     -0.2700
     16  H11       28.1700    1.1970    2.6470 H     243  INH243      0.1690
     17  C8        28.9230    2.3510    5.6680 C.3   243  INH243      0.1480
     18  C9        28.6250    3.8340    5.4410 C.3   243  INH243      0.0570
     19  C7        30.1590    2.1880    6.5580 C.3   243  INH243      0.1930
     20  S1        30.3460    0.5330    7.3180 S.O2  243  INH243      0.1780
     21  O2        29.3540   -0.4110    6.7090 O.2   243  INH243     -0.2220
     22  O1        31.7380    0.0180    7.0940 O.2   243  INH243     -0.2220
     23  C6        30.0560    0.6580    9.0380 C.ar  243  INH243      0.0590
     24  C1        29.0200    1.4540    9.5180 C.ar  243  INH243      0.0260
     25  C2        28.7820    1.5350   10.8870 C.ar  243  INH243      0.0440
     26  C3        29.5790    0.8160   11.7730 C.ar  243  INH243      0.1160
     27  C4        30.6150    0.0200   11.2920 C.ar  243  INH243      0.0440
     28  F1        29.3550    0.8880   13.1000 F     243  INH243     -0.2060
     29  C5        30.8540   -0.0570    9.9240 C.ar  243  INH243      0.0260
     30  O3        27.8040    1.7240    6.3000 O.3   243  INH243     -0.3800
     31  H7        27.8440    1.8730    7.2380 H     243  INH243      0.2110
@<TRIPOS>BOND
     1    16    13    1
     2    11     9    1
     3    13     1    1
     4    13    14   am
     5     1     2   ar
     6     1     3   ar
     7     2     8   ar
     8    12     9    1
     9     3     4   ar
    10    15    14    2
    11     8     9    1
    12     8     5   ar
    13    14    17    1
    14     9    10    1
    15     4     5   ar
    16     5     6    1
    17     6     7    3
    18    18    17    1
    19    17    30    1
    20    17    19    1
    21    30    31    1
    22    19    20    1
    23    21    20    2
    24    22    20    2
    25    20    23    1
    26    23    24   ar
    27    23    29   ar
    28    24    25   ar
    29    29    27   ar
    30    25    26   ar
    31    27    26   ar
    32    26    28    1
