@<TRIPOS>MOLECULE
/tmp/ewbell/vina_1z95_1z95_lig/vina/vina1.pdbqt
 31 32 0 0 0
SMALL
GASTEIGER

@<TRIPOS>ATOM
      1  C11       25.6700    1.8810    4.4790 C.ar  243  INH243      0.0350
      2  C12       26.5200    2.8410    3.9340 C.ar  243  INH243      0.0470
      3  C13       24.5590    2.3010    5.2010 C.ar  243  INH243      0.0310
      4  C14       24.3110    3.6620    5.3570 C.ar  243  INH243      0.0260
      5  C15       25.1690    4.6090    4.8060 C.ar  243  INH243      0.0590
      6  C16       24.8050    5.9790    5.0010 C.1   243  INH243      0.1000
      7  N2        24.5050    7.0640    5.1700 N.1   243  INH243     -0.1910
      8  C17       26.3020    4.2120    4.0870 C.ar  243  INH243      0.0700
      9  C18       27.3130    5.2000    3.4760 C.3   243  INH243      0.4190
     10  F4        28.3420    4.5780    2.9060 F     243  INH243     -0.1660
     11  F3        27.8590    6.0420    4.3500 F     243  INH243     -0.1660
     12  F2        26.7130    5.9300    2.5410 F     243  INH243     -0.1660
     13  N1        25.9200    0.5720    4.4380 N.am  243  INH243     -0.3250
     14  C10       27.0530   -0.0220    4.8040 C.2   243  INH243      0.2570
     15  O4        27.2590   -1.2360    4.7700 O.2   243  INH243     -0.2700
     16  H11       25.1870   -0.0190    4.1010 H     243  INH243      0.1690
     17  C8        28.0850    0.9270    5.4200 C.3   243  INH243      0.1480
     18  C9        28.8230    1.6530    4.2930 C.3   243  INH243      0.0570
     19  C7        29.0750    0.1430    6.2850 C.3   243  INH243      0.1930
     20  S1        30.1520    1.1750    7.3480 S.O2  243  INH243      0.1780
     21  O2        31.5880    0.8820    7.0380 O.2   243  INH243     -0.2220
     22  O1        29.8680    2.6290    7.1090 O.2   243  INH243     -0.2220
     23  C6        29.8270    0.8010    9.0250 C.ar  243  INH243      0.0590
     24  C1        28.9750    1.6100    9.7720 C.ar  243  INH243      0.0260
     25  C2        28.7050    1.2950   11.1010 C.ar  243  INH243      0.0440
     26  C3        29.2860    0.1700   11.6790 C.ar  243  INH243      0.1160
     27  C4        30.1370   -0.6380   10.9310 C.ar  243  INH243      0.0440
     28  F1        29.0290   -0.1430   12.9650 F     243  INH243     -0.2060
     29  C5        30.4090   -0.3210    9.6040 C.ar  243  INH243      0.0260
     30  O3        27.3960    1.8770    6.2370 O.3   243  INH243     -0.3800
     31  H7        26.5020    1.9720    5.9290 H     243  INH243      0.2110
@<TRIPOS>BOND
     1    12     9    1
     2    10     9    1
     3     9     8    1
     4     9    11    1
     5     2     8   ar
     6     2     1   ar
     7     8     5   ar
     8    16    13    1
     9    18    17    1
    10    13     1    1
    11    13    14   am
    12     1     3   ar
    13    15    14    2
    14    14    17    1
    15     5     6    1
    16     5     4   ar
    17     6     7    3
    18     3     4   ar
    19    17    30    1
    20    17    19    1
    21    31    30    1
    22    19    20    1
    23    21    20    2
    24    22    20    2
    25    20    23    1
    26    23    29   ar
    27    23    24   ar
    28    29    27   ar
    29    24    25   ar
    30    27    26   ar
    31    25    26   ar
    32    26    28    1
