@<TRIPOS>MOLECULE
./ligand/2qhy_lig.pdb
 67 69 0 0 0
SMALL
GASTEIGER

@<TRIPOS>ATOM
      1  O1        22.2540   25.1830   11.8000 O.2   203  INH203     -0.2761
      2  C1        21.9560   25.9700   10.9070 C.2   203  INH203      0.2105
      3  C2        21.4550   25.4120    9.5860 C.3   203  INH203      0.0122
      4  N1        22.0820   27.2940   11.0520 N.am  203  INH203     -0.3045
      5  C3        22.5580   27.9200   12.2820 C.3   203  INH203      0.0965
      6  C4        23.9060   28.6100   12.0710 C.3   203  INH203     -0.0381
      7  C5        21.4960   28.9050   12.7540 C.2   203  INH203      0.2334
      8  O2        21.3210   29.9680   12.1470 O.2   203  INH203     -0.2738
      9  N2        20.7850   28.5600   13.8350 N.am  203  INH203     -0.3081
     10  C6        19.7080   29.3840   14.4030 C.3   203  INH203      0.0543
     11  C7        18.4320   28.5360   14.3140 C.3   203  INH203     -0.0067
     12  C8        18.1280   28.1890   12.8530 C.ar  203  INH203     -0.0455
     13  C9        17.5640   29.1340   12.0000 C.ar  203  INH203     -0.0585
     14  C10       17.2960   28.8200   10.6690 C.ar  203  INH203     -0.0615
     15  C11       17.6010   27.5600   10.1740 C.ar  203  INH203     -0.0617
     16  C12       18.1720   26.6130   11.0130 C.ar  203  INH203     -0.0615
     17  C13       18.4340   26.9260   12.3470 C.ar  203  INH203     -0.0585
     18  C14       20.0740   29.7720   15.8450 C.3   203  INH203      0.0881
     19  O3        20.0760   28.6160   16.6920 O.3   203  INH203     -0.3886
     20  C15       19.1170   30.8480   16.4200 C.3   203  INH203      0.0486
     21  N3        19.4300   32.1510   15.7720 N.3   203  INH203     -0.1692
     22  S1        18.1900   32.8610   14.9870 S.O2  203  INH203      0.0641
     23  O4        18.8410   33.6980   14.0410 O.2   203  INH203     -0.1527
     24  O5        17.4870   31.8250   14.3000 O.2   203  INH203     -0.1527
     25  C16       17.1670   33.7640   15.8930 C.ar  203  INH203      0.1434
     26  C17       17.2260   35.1630   15.8810 C.ar  203  INH203      0.0056
     27  C18       16.3550   35.9570   16.6510 C.ar  203  INH203      0.1604
     28  F1        16.4260   37.3070   16.6510 F     203  INH203     -0.2024
     29  C19       16.1810   33.1920   16.7060 C.ar  203  INH203      0.1525
     30  F2        16.0370   31.8710   16.7730 F     203  INH203     -0.2033
     31  C20       15.3020   33.9760   17.4730 C.ar  203  INH203      0.0136
     32  C21       15.3900   35.3590   17.4490 C.ar  203  INH203      0.1612
     33  F3        14.5580   36.1310   18.1840 F     203  INH203     -0.2024
     34  C22       20.2090   33.1080   16.6120 C.3   203  INH203      0.0518
     35  C23       21.6480   33.1380   16.1060 C.ar  203  INH203      0.0055
     36  C24       22.7040   33.2600   16.9470 C.ar  203  INH203     -0.0502
     37  C25       23.8980   33.2210   16.1760 C.ar  203  INH203     -0.0544
     38  C26       23.6610   33.0770   14.8640 C.ar  203  INH203     -0.0240
     39  S2        22.0490   32.9860   14.4800 S.2   203  INH203     -0.1003
     40  H1        21.4140   24.3140    9.6440 H     203  INH203      0.0322
     41  H2        22.1390   25.7110    8.7780 H     203  INH203      0.0322
     42  H3        20.4490   25.8060    9.3790 H     203  INH203      0.0322
     43  H4        21.8390   27.8830   10.2810 H     203  INH203      0.1494
     44  H5        22.6870   27.1420   13.0490 H     203  INH203      0.0592
     45  H6        24.2340   29.0700   13.0150 H     203  INH203      0.0252
     46  H7        23.8030   29.3880   11.3000 H     203  INH203      0.0252
     47  H8        24.6510   27.8680   11.7460 H     203  INH203      0.0252
     48  H9        20.9990   27.6910   14.2820 H     203  INH203      0.1491
     49  H10       19.5790   30.3020   13.8110 H     203  INH203      0.0527
     50  H11       17.5890   29.1030   14.7360 H     203  INH203      0.0332
     51  H12       18.5720   27.6070   14.8860 H     203  INH203      0.0332
     52  H13       17.3310   30.1240   12.3750 H     203  INH203      0.0620
     53  H14       16.8480   29.5620   10.0180 H     203  INH203      0.0618
     54  H15       17.3950   27.3170    9.1380 H     203  INH203      0.0618
     55  H16       18.4150   25.6280   10.6310 H     203  INH203      0.0618
     56  H17       18.8790   26.1810   12.9960 H     203  INH203      0.0620
     57  H18       21.0900   30.1930   15.8330 H     203  INH203      0.0625
     58  H19       19.2040   28.2380   16.7140 H     203  INH203      0.2099
     59  H20       18.0740   30.5690   16.2080 H     203  INH203      0.0470
     60  H21       19.2610   30.9300   17.5070 H     203  INH203      0.0470
     61  H22       17.9670   35.6510   15.2580 H     203  INH203      0.0668
     62  H23       14.5500   33.4950   18.0880 H     203  INH203      0.0676
     63  H24       19.7680   34.1130   16.5350 H     203  INH203      0.0498
     64  H25       20.1920   32.7790   17.6620 H     203  INH203      0.0498
     65  H26       22.6470   33.3690   18.0290 H     203  INH203      0.0626
     66  H27       24.8960   33.2990   16.6040 H     203  INH203      0.0623
     67  H28       24.4540   33.0250   14.1190 H     203  INH203      0.0693
@<TRIPOS>BOND
     1     1     2    2
     2     2     4   am
     3     2     3    1
     4     3    42    1
     5     3    41    1
     6     3    40    1
     7     4    43    1
     8     4     5    1
     9     5    44    1
    10     5     7    1
    11     5     6    1
    12     6    47    1
    13     6    46    1
    14     6    45    1
    15     7     9   am
    16     7     8    2
    17     9    48    1
    18     9    10    1
    19    10    49    1
    20    10    18    1
    21    10    11    1
    22    11    51    1
    23    11    50    1
    24    11    12    1
    25    12    17   ar
    26    12    13   ar
    27    13    52    1
    28    13    14   ar
    29    14    53    1
    30    14    15   ar
    31    15    54    1
    32    15    16   ar
    33    16    55    1
    34    16    17   ar
    35    17    56    1
    36    18    57    1
    37    18    20    1
    38    18    19    1
    39    19    58    1
    40    20    60    1
    41    20    59    1
    42    20    21    1
    43    21    34    1
    44    21    22    1
    45    22    25    1
    46    22    24    2
    47    22    23    2
    48    25    29   ar
    49    25    26   ar
    50    26    61    1
    51    26    27   ar
    52    27    32   ar
    53    27    28    1
    54    29    31   ar
    55    29    30    1
    56    31    32   ar
    57    31    62    1
    58    32    33    1
    59    34    64    1
    60    34    63    1
    61    34    35    1
    62    35    39   ar
    63    35    36   ar
    64    36    65    1
    65    36    37   ar
    66    37    66    1
    67    37    38   ar
    68    38    67    1
    69    38    39   ar
