@<TRIPOS>MOLECULE
/tmp/ewbell/vina_2qhy_2qhy_lig/vina/vina5.pdbqt
 42 44 0 0 0
SMALL
GASTEIGER

@<TRIPOS>ATOM
      1  C14       19.6270   35.5720   19.1080 C.3   203  INH203      0.1550
      2  C6        20.6840   35.3630   18.0110 C.3   203  INH203      0.1180
      3  N2        20.3990   34.1100   17.2970 N.am  203  INH203     -0.3520
      4  C5        21.3430   33.3320   16.7510 C.2   203  INH203      0.2400
      5  O2        22.5480   33.6040   16.8010 O.2   203  INH203     -0.2710
      6  H9        19.4450   33.8210   17.2130 H     203  INH203      0.1630
      7  C3        20.8730   32.0650   16.0470 C.3   203  INH203      0.1720
      8  C4        20.0620   31.1720   16.9870 C.3   203  INH203      0.0420
      9  N1        22.0480   31.3690   15.5320 N.am  203  INH203     -0.3490
     10  C1        22.0620   30.7260   14.3590 C.2   203  INH203      0.2140
     11  O1        23.0560   30.1360   13.9480 O.2   203  INH203     -0.2740
     12  C2        20.8190   30.7460   13.4870 C.3   203  INH203      0.1170
     13  H4        22.8840   31.3730   16.0830 H     203  INH203      0.1630
     14  C7        20.6730   36.4700   16.9470 C.3   203  INH203      0.0660
     15  C8        21.6730   37.5690   17.3180 C.ar  203  INH203     -0.0560
     16  C13       22.8420   37.2590   18.0120 C.ar  203  INH203      0.0070
     17  C12       23.7460   38.2620   18.3640 C.ar  203  INH203      0.0010
     18  C11       23.4900   39.5830   18.0240 C.ar  203  INH203      0.0000
     19  C10       22.3260   39.9010   17.3350 C.ar  203  INH203      0.0010
     20  C9        21.4210   38.9000   16.9900 C.ar  203  INH203      0.0070
     21  C15       18.2350   35.0350   18.6870 C.3   203  INH203      0.1410
     22  N3        17.4220   36.1770   18.1860 N.3   203  INH203     -0.1990
     23  C22       16.7090   36.9590   19.2390 C.3   203  INH203      0.1530
     24  C23       17.0200   38.4390   19.0370 C.ar  203  INH203     -0.0040
     25  S2        15.8410   39.5780   18.6600 S.2   203  INH203     -0.1050
     26  C26       17.0000   40.7640   18.5930 C.ar  203  INH203      0.0500
     27  C25       18.2410   40.3230   18.8500 C.ar  203  INH203      0.0080
     28  C24       18.2810   38.9290   19.1190 C.ar  203  INH203      0.0160
     29  S1        16.4840   35.8580   16.8910 S.O2  203  INH203      0.2470
     30  O5        16.5840   36.9840   16.0200 O.2   203  INH203     -0.2060
     31  O4        15.1760   35.8020   17.4440 O.2   203  INH203     -0.2060
     32  C16       16.7900   34.4640   16.0870 C.ar  203  INH203      0.1160
     33  C19       16.1200   33.2690   16.3760 C.ar  203  INH203      0.1420
     34  C20       16.3970   32.0760   15.6860 C.ar  203  INH203      0.0890
     35  F2        15.1950   33.2220   17.3310 F     203  INH203     -0.2040
     36  C21       17.3510   32.0490   14.6820 C.ar  203  INH203      0.1570
     37  C18       18.0340   33.2170   14.3740 C.ar  203  INH203      0.1560
     38  F3        17.6270   30.9130   14.0020 F     203  INH203     -0.2030
     39  C17       17.7560   34.4050   15.0760 C.ar  203  INH203      0.0730
     40  F1        18.9560   33.1670   13.3850 F     203  INH203     -0.2030
     41  O3        20.0420   34.9490   20.3300 O.3   203  INH203     -0.3920
     42  H19       19.3110   34.9240   20.9370 H     203  INH203      0.2100
@<TRIPOS>BOND
     1    40    37    1
     2    12    10    1
     3    11    10    2
     4    38    36    1
     5    10     9   am
     6    37    36   ar
     7    37    39   ar
     8    36    34   ar
     9    39    32   ar
    10     9     7    1
    11     9    13    1
    12    34    33   ar
    13    30    29    2
    14     7     4    1
    15     7     8    1
    16    32    33   ar
    17    32    29    1
    18    33    35    1
    19     4     5    2
    20     4     3   am
    21    29    31    2
    22    29    22    1
    23    14    15    1
    24    14     2    1
    25    20    15   ar
    26    20    19   ar
    27     6     3    1
    28     3     2    1
    29    15    16   ar
    30    19    18   ar
    31     2     1    1
    32    16    17   ar
    33    18    17   ar
    34    22    21    1
    35    22    23    1
    36    26    25   ar
    37    26    27   ar
    38    25    24   ar
    39    21     1    1
    40    27    28   ar
    41    24    28   ar
    42    24    23    1
    43     1    41    1
    44    41    42    1
