@<TRIPOS>MOLECULE
/tmp/ewbell/vina_2qhy_2qhy_lig/vina/vina2.pdbqt
 42 44 0 0 0
SMALL
GASTEIGER

@<TRIPOS>ATOM
      1  C14       19.9700   29.1620   14.1930 C.3   203  INH203      0.1550
      2  C6        20.6650   28.4700   13.0090 C.3   203  INH203      0.1180
      3  N2        19.7840   28.5200   11.8330 N.am  203  INH203     -0.3520
      4  C5        18.9530   27.5310   11.4820 C.2   203  INH203      0.2400
      5  O2        18.8530   26.4780   12.1230 O.2   203  INH203     -0.2710
      6  H9        19.8080   29.3410   11.2620 H     203  INH203      0.1630
      7  C3        18.1090   27.7490   10.2320 C.3   203  INH203      0.1720
      8  C4        17.0430   28.8220   10.4580 C.3   203  INH203      0.0420
      9  N1        17.5080   26.4710    9.8610 N.am  203  INH203     -0.3490
     10  C1        17.9250   25.7420    8.8200 C.2   203  INH203      0.2140
     11  O1        17.4000   24.6760    8.5150 O.2   203  INH203     -0.2740
     12  C2        19.1060   26.2290    7.9980 C.3   203  INH203      0.1170
     13  H4        16.7490   26.1240   10.4120 H     203  INH203      0.1630
     14  C7        21.9710   29.1590   12.5920 C.3   203  INH203      0.0660
     15  C8        22.9890   28.1190   12.1140 C.ar  203  INH203     -0.0560
     16  C13       24.3430   28.4430   12.0220 C.ar  203  INH203      0.0070
     17  C12       25.2690   27.5020   11.5720 C.ar  203  INH203      0.0010
     18  C11       24.8510   26.2290   11.2110 C.ar  203  INH203      0.0000
     19  C10       23.5040   25.8990   11.2970 C.ar  203  INH203      0.0010
     20  C9        22.5790   26.8420   11.7400 C.ar  203  INH203      0.0070
     21  C15       19.3410   30.5210   13.7870 C.3   203  INH203      0.1410
     22  N3        19.6510   31.5170   14.8470 N.3   203  INH203     -0.1990
     23  C22       20.6990   31.1000   15.8250 C.3   203  INH203      0.1530
     24  C23       21.9330   31.9720   15.6160 C.ar  203  INH203     -0.0040
     25  S2        22.7690   32.6930   16.8840 S.2   203  INH203     -0.1050
     26  C26       23.8100   33.4010   15.8030 C.ar  203  INH203      0.0500
     27  C25       23.5430   33.1050   14.5220 C.ar  203  INH203      0.0080
     28  C24       22.4190   32.2480   14.3810 C.ar  203  INH203      0.0160
     29  S1        18.3590   32.2100   15.5610 S.O2  203  INH203      0.2470
     30  O5        17.8060   31.2390   16.4500 O.2   203  INH203     -0.2060
     31  O4        17.4650   32.4220   14.4770 O.2   203  INH203     -0.2060
     32  C16       18.6190   33.6320   16.3310 C.ar  203  INH203      0.1160
     33  C19       17.7170   34.1550   17.2660 C.ar  203  INH203      0.1420
     34  C20       17.9460   35.3800   17.9150 C.ar  203  INH203      0.0890
     35  F2        16.5960   33.5040   17.5660 F     203  INH203     -0.2040
     36  C21       19.0900   36.1150   17.6480 C.ar  203  INH203      0.1570
     37  C18       20.0020   35.6250   16.7240 C.ar  203  INH203      0.1560
     38  F3        19.3310   37.2930   18.2660 F     203  INH203     -0.2030
     39  C17       19.7610   34.4000   16.0740 C.ar  203  INH203      0.0730
     40  F1        21.1140   36.3560   16.4860 F     203  INH203     -0.2030
     41  O3        18.9660   28.3080   14.7560 O.3   203  INH203     -0.3920
     42  H19       19.2560   27.9950   15.6050 H     203  INH203      0.2100
@<TRIPOS>BOND
     1    12    10    1
     2    11    10    2
     3    10     9   am
     4     9     7    1
     5     9    13    1
     6     7     8    1
     7     7     4    1
     8    18    19   ar
     9    18    17   ar
    10     6     3    1
    11    19    20   ar
    12     4     3   am
    13     4     5    2
    14    17    16   ar
    15    20    15   ar
    16     3     2    1
    17    16    15   ar
    18    15    14    1
    19    14     2    1
    20     2     1    1
    21    21     1    1
    22    21    22    1
    23     1    41    1
    24    28    27   ar
    25    28    24   ar
    26    31    29    2
    27    27    26   ar
    28    41    42    1
    29    22    29    1
    30    22    23    1
    31    29    32    1
    32    29    30    2
    33    24    23    1
    34    24    25   ar
    35    26    25   ar
    36    39    32   ar
    37    39    37   ar
    38    32    33   ar
    39    40    37    1
    40    37    36   ar
    41    33    35    1
    42    33    34   ar
    43    36    34   ar
    44    36    38    1
