@<TRIPOS>MOLECULE
/tmp/ewbell/vina_2qhy_2qhy_lig/vina/vina1.pdbqt
 42 44 0 0 0
SMALL
GASTEIGER

@<TRIPOS>ATOM
      1  C14       20.2230   29.5180   15.1970 C.3   203  INH203      0.1550
      2  C6        19.8190   29.0490   13.7900 C.3   203  INH203      0.1180
      3  N2        20.8270   28.1050   13.2860 N.am  203  INH203     -0.3520
      4  C5        21.7480   28.4190   12.3660 C.2   203  INH203      0.2400
      5  O2        21.8310   29.5420   11.8550 O.2   203  INH203     -0.2710
      6  H9        20.8240   27.1730   13.6510 H     203  INH203      0.1630
      7  C3        22.7180   27.3170   11.9570 C.3   203  INH203      0.1720
      8  C4        24.1540   27.8390   11.8770 C.3   203  INH203      0.0420
      9  N1        22.2760   26.7760   10.6750 N.am  203  INH203     -0.3490
     10  C1        21.5780   25.6410   10.5620 C.2   203  INH203      0.2140
     11  O1        21.2250   25.1950    9.4750 O.2   203  INH203     -0.2740
     12  C2        21.1800   24.8860   11.8180 C.3   203  INH203      0.1170
     13  H4        22.5060   27.2790    9.8410 H     203  INH203      0.1630
     14  C7        18.4820   28.2960   13.7680 C.3   203  INH203      0.0660
     15  C8        18.2190   27.7270   12.3700 C.ar  203  INH203     -0.0560
     16  C13       18.0550   26.3540   12.1840 C.ar  203  INH203      0.0070
     17  C12       17.8310   25.8330   10.9100 C.ar  203  INH203      0.0010
     18  C11       17.7660   26.6780    9.8110 C.ar  203  INH203      0.0000
     19  C10       17.9300   28.0450    9.9880 C.ar  203  INH203      0.0010
     20  C9        18.1610   28.5660   11.2600 C.ar  203  INH203      0.0070
     21  C15       19.1920   30.5060   15.8020 C.3   203  INH203      0.1410
     22  N3        19.4720   31.8650   15.2630 N.3   203  INH203     -0.1990
     23  C22       20.1820   32.7850   16.1990 C.3   203  INH203      0.1530
     24  C23       21.6280   32.9300   15.7330 C.ar  203  INH203     -0.0040
     25  S2        22.1220   32.5750   14.1650 S.2   203  INH203     -0.1050
     26  C26       23.6890   32.9450   14.5690 C.ar  203  INH203      0.0500
     27  C25       23.8420   33.3290   15.8450 C.ar  203  INH203      0.0080
     28  C24       22.6190   33.3280   16.5680 C.ar  203  INH203      0.0160
     29  S1        18.2300   32.5840   14.4900 S.O2  203  INH203      0.2470
     30  O5        17.5330   31.5600   13.7800 O.2   203  INH203     -0.2060
     31  O4        18.8790   33.4440   13.5630 O.2   203  INH203     -0.2060
     32  C16       17.2000   33.4640   15.4120 C.ar  203  INH203      0.1160
     33  C19       16.3240   32.8740   16.3300 C.ar  203  INH203      0.1420
     34  C20       15.4390   33.6370   17.1100 C.ar  203  INH203      0.0890
     35  F2        16.2950   31.5530   16.4900 F     203  INH203     -0.2040
     36  C21       15.4100   35.0180   16.9940 C.ar  203  INH203      0.1570
     37  C18       16.2650   35.6330   16.0900 C.ar  203  INH203      0.1560
     38  F3        14.5700   35.7710   17.7390 F     203  INH203     -0.2030
     39  C17       17.1420   34.8590   15.3080 C.ar  203  INH203      0.0730
     40  F1        16.2230   36.9820   16.0000 F     203  INH203     -0.2030
     41  O3        20.3940   28.3950   16.0710 O.3   203  INH203     -0.3920
     42  H19       20.9750   27.7620   15.6650 H     203  INH203      0.2100
@<TRIPOS>BOND
     1    11    10    2
     2    18    19   ar
     3    18    17   ar
     4    13     9    1
     5    19    20   ar
     6    10     9   am
     7    10    12    1
     8     9     7    1
     9    17    16   ar
    10    20    15   ar
    11     5     4    2
    12     8     7    1
    13     7     4    1
    14    16    15   ar
    15     4     3   am
    16    15    14    1
    17     3     6    1
    18     3     2    1
    19    31    29    2
    20    14     2    1
    21    30    29    2
    22     2     1    1
    23    25    26   ar
    24    25    24   ar
    25    29    22    1
    26    29    32    1
    27    26    27   ar
    28     1    21    1
    29     1    41    1
    30    22    21    1
    31    22    23    1
    32    39    32   ar
    33    39    37   ar
    34    32    33   ar
    35    42    41    1
    36    24    23    1
    37    24    28   ar
    38    27    28   ar
    39    40    37    1
    40    37    36   ar
    41    33    35    1
    42    33    34   ar
    43    36    34   ar
    44    36    38    1
