@<TRIPOS>MOLECULE
/tmp/ewbell/vina_2qhy_2qhy_lig/vina/vina4.pdbqt
 42 44 0 0 0
SMALL
GASTEIGER

@<TRIPOS>ATOM
      1  C14       19.4400   35.6300   18.8010 C.3   203  INH203      0.1550
      2  C6        20.3380   35.3820   17.5780 C.3   203  INH203      0.1180
      3  N2        20.7670   36.6740   17.0230 N.am  203  INH203     -0.3520
      4  C5        21.4420   37.5970   17.7200 C.2   203  INH203      0.2400
      5  O2        21.7640   37.4410   18.9040 O.2   203  INH203     -0.2710
      6  H9        20.5430   36.8750   16.0690 H     203  INH203      0.1630
      7  C3        21.8100   38.8820   16.9890 C.3   203  INH203      0.1720
      8  C4        22.9380   39.6280   17.7030 C.3   203  INH203      0.0420
      9  N1        20.6090   39.7060   16.8850 N.am  203  INH203     -0.3490
     10  C1        20.2730   40.3720   15.7750 C.2   203  INH203      0.2140
     11  O1        19.2650   41.0690   15.7110 O.2   203  INH203     -0.2740
     12  C2        21.1470   40.2460   14.5400 C.3   203  INH203      0.1170
     13  H4        20.0080   39.7730   17.6820 H     203  INH203      0.1630
     14  C7        21.6240   34.6180   17.9210 C.3   203  INH203      0.0660
     15  C8        21.9870   33.6560   16.7860 C.ar  203  INH203     -0.0560
     16  C13       21.2070   32.5270   16.5360 C.ar  203  INH203      0.0070
     17  C12       21.5460   31.6430   15.5120 C.ar  203  INH203      0.0010
     18  C11       22.6670   31.8790   14.7280 C.ar  203  INH203      0.0000
     19  C10       23.4500   32.9990   14.9720 C.ar  203  INH203      0.0010
     20  C9        23.1150   33.8790   15.9990 C.ar  203  INH203      0.0070
     21  C15       18.0260   35.0190   18.6200 C.3   203  INH203      0.1410
     22  N3        17.1390   36.0550   18.0250 N.3   203  INH203     -0.1990
     23  C22       16.2360   36.7500   18.9900 C.3   203  INH203      0.1530
     24  C23       16.4330   38.2550   18.8390 C.ar  203  INH203     -0.0040
     25  S2        17.9010   39.0200   19.1380 S.2   203  INH203     -0.1050
     26  C26       17.2110   40.4900   18.7960 C.ar  203  INH203      0.0500
     27  C25       15.9140   40.4140   18.4620 C.ar  203  INH203      0.0080
     28  C24       15.4210   39.0820   18.4810 C.ar  203  INH203      0.0160
     29  S1        16.3810   35.6240   16.6470 S.O2  203  INH203      0.2470
     30  O5        16.4670   36.7390   15.7600 O.2   203  INH203     -0.2060
     31  O4        15.0320   35.4510   17.0600 O.2   203  INH203     -0.2060
     32  C16       16.9020   34.2520   15.9190 C.ar  203  INH203      0.1160
     33  C19       16.3670   32.9940   16.2180 C.ar  203  INH203      0.1420
     34  C20       16.8280   31.8220   15.5940 C.ar  203  INH203      0.0890
     35  F2        15.3990   32.8640   17.1220 F     203  INH203     -0.2040
     36  C21       17.8380   31.8800   14.6470 C.ar  203  INH203      0.1570
     37  C18       18.3910   33.1120   14.3300 C.ar  203  INH203      0.1560
     38  F3        18.2910   30.7650   14.0310 F     203  INH203     -0.2030
     39  C17       17.9280   34.2790   14.9660 C.ar  203  INH203      0.0730
     40  F1        19.3700   33.1440   13.3980 F     203  INH203     -0.2030
     41  O3        20.0500   35.1060   19.9870 O.3   203  INH203     -0.3920
     42  H19       20.5050   35.8050   20.4450 H     203  INH203      0.2100
@<TRIPOS>BOND
     1    40    37    1
     2    38    36    1
     3    37    36   ar
     4    37    39   ar
     5    12    10    1
     6    36    34   ar
     7    18    19   ar
     8    18    17   ar
     9    39    32   ar
    10    19    20   ar
    11    17    16   ar
    12    34    33   ar
    13    11    10    2
    14    30    29    2
    15    10     9   am
    16    32    33   ar
    17    32    29    1
    18    20    15   ar
    19     6     3    1
    20    33    35    1
    21    16    15   ar
    22    29    31    2
    23    29    22    1
    24    15    14    1
    25     9     7    1
    26     9    13    1
    27     7     8    1
    28     7     4    1
    29     3     2    1
    30     3     4   am
    31     2    14    1
    32     2     1    1
    33     4     5    2
    34    22    21    1
    35    22    23    1
    36    27    28   ar
    37    27    26   ar
    38    28    24   ar
    39    21     1    1
    40    26    25   ar
    41     1    41    1
    42    24    23    1
    43    24    25   ar
    44    41    42    1
