@<TRIPOS>MOLECULE
/tmp/ewbell/vina_2qhy_2qhy_lig/vina/vina3.pdbqt
 42 44 0 0 0
SMALL
GASTEIGER

@<TRIPOS>ATOM
      1  C14       18.9700   28.9530   13.9030 C.3   203  INH203      0.1550
      2  C6        19.1060   28.3710   12.4870 C.3   203  INH203      0.1180
      3  N2        20.3800   27.6450   12.3820 N.am  203  INH203     -0.3520
      4  C5        21.5330   28.2130   12.0060 C.2   203  INH203      0.2400
      5  O2        21.6260   29.4100   11.7100 O.2   203  INH203     -0.2710
      6  H9        20.3860   26.6700   12.6050 H     203  INH203      0.1630
      7  C3        22.7610   27.3130   11.9520 C.3   203  INH203      0.1720
      8  C4        24.0470   28.1090   12.1740 C.3   203  INH203      0.0420
      9  N1        22.7710   26.6360   10.6580 N.am  203  INH203     -0.3490
     10  C1        22.1040   25.5000   10.4230 C.2   203  INH203      0.2140
     11  O1        22.1340   24.9380    9.3320 O.2   203  INH203     -0.2740
     12  C2        21.2570   24.8930   11.5270 C.3   203  INH203      0.1170
     13  H4        23.3000   27.0410    9.9130 H     203  INH203      0.1630
     14  C7        18.0080   27.3540   12.1470 C.3   203  INH203      0.0660
     15  C8        18.0500   27.0090   10.6550 C.ar  203  INH203     -0.0560
     16  C13       18.2770   28.0030    9.7030 C.ar  203  INH203      0.0070
     17  C12       18.3000   27.6920    8.3440 C.ar  203  INH203      0.0010
     18  C11       18.0980   26.3860    7.9230 C.ar  203  INH203      0.0000
     19  C10       17.8680   25.3900    8.8640 C.ar  203  INH203      0.0010
     20  C9        17.8390   25.7020   10.2220 C.ar  203  INH203      0.0070
     21  C15       18.4830   30.4260   13.8850 C.3   203  INH203      0.1410
     22  N3        19.1860   31.1670   14.9660 N.3   203  INH203     -0.1990
     23  C22       20.5370   30.6420   15.3230 C.3   203  INH203      0.1530
     24  C23       21.5490   31.7770   15.1940 C.ar  203  INH203     -0.0040
     25  S2        22.2350   32.5460   16.5230 S.2   203  INH203     -0.1050
     26  C26       23.0750   33.5570   15.5110 C.ar  203  INH203      0.0500
     27  C25       22.8530   33.3260   14.2080 C.ar  203  INH203      0.0080
     28  C24       21.9390   32.2610   13.9900 C.ar  203  INH203      0.0160
     29  S1        18.2820   31.5280   16.2740 S.O2  203  INH203      0.2470
     30  O5        19.0190   31.0990   17.4190 O.2   203  INH203     -0.2060
     31  O4        17.1360   30.7030   16.1130 O.2   203  INH203     -0.2060
     32  C16       17.8060   33.0870   16.4320 C.ar  203  INH203      0.1160
     33  C19       16.5260   33.5220   16.0700 C.ar  203  INH203      0.1420
     34  C20       16.1310   34.8640   16.2010 C.ar  203  INH203      0.0890
     35  F2        15.6330   32.6680   15.5750 F     203  INH203     -0.2040
     36  C21       17.0090   35.8100   16.7040 C.ar  203  INH203      0.1570
     37  C18       18.2870   35.4120   17.0700 C.ar  203  INH203      0.1560
     38  F3        16.6470   37.1050   16.8440 F     203  INH203     -0.2030
     39  C17       18.6760   34.0660   16.9280 C.ar  203  INH203      0.0730
     40  F1        19.1240   36.3510   17.5650 F     203  INH203     -0.2030
     41  O3        18.0800   28.1540   14.6920 O.3   203  INH203     -0.3920
     42  H19       18.0380   28.5040   15.5750 H     203  INH203      0.2100
@<TRIPOS>BOND
     1    18    17   ar
     2    18    19   ar
     3    17    16   ar
     4    19    20   ar
     5    11    10    2
     6    16    15   ar
     7    13     9    1
     8    20    15   ar
     9    10     9   am
    10    10    12    1
    11    15    14    1
    12     9     7    1
    13     5     4    2
    14     7     4    1
    15     7     8    1
    16     4     3   am
    17    14     2    1
    18     3     2    1
    19     3     6    1
    20     2     1    1
    21    21     1    1
    22    21    22    1
    23     1    41    1
    24    28    27   ar
    25    28    24   ar
    26    27    26   ar
    27    41    42    1
    28    22    23    1
    29    22    29    1
    30    24    23    1
    31    24    25   ar
    32    26    25   ar
    33    35    33    1
    34    33    34   ar
    35    33    32   ar
    36    31    29    2
    37    34    36   ar
    38    29    32    1
    39    29    30    2
    40    32    39   ar
    41    36    38    1
    42    36    37   ar
    43    39    37   ar
    44    37    40    1
