@<TRIPOS>MOLECULE
./ligand/1zhy_lig.pdb
 74 77 0 0 0
SMALL
GASTEIGER

@<TRIPOS>ATOM
      1  C1        57.7400   36.0540   33.4270 C.3   439  INH439     -0.0413
      2  C2        57.7820   36.1530   34.9560 C.3   439  INH439     -0.0258
      3  C3        56.3760   36.0200   35.5470 C.3   439  INH439      0.0590
      4  C4        55.7960   34.6540   35.1730 C.3   439  INH439     -0.0051
      5  C5        55.8600   34.4410   33.6580 C.2   439  INH439     -0.0648
      6  C6        54.7230   34.0100   32.9840 C.2   439  INH439     -0.0839
      7  C7        54.6060   33.8010   31.6150 C.3   439  INH439     -0.0311
      8  C8        55.9620   33.7420   30.9020 C.3   439  INH439     -0.0307
      9  C9        56.9070   34.8450   31.3980 C.3   439  INH439     -0.0285
     10  C10       57.1660   34.7310   32.9070 C.3   439  INH439     -0.0078
     11  C11       58.2000   34.8910   30.5720 C.3   439  INH439     -0.0486
     12  C12       57.9480   34.9520   29.0590 C.3   439  INH439     -0.0468
     13  C13       57.0630   33.7850   28.6110 C.3   439  INH439     -0.0259
     14  C14       55.7530   33.8960   29.3930 C.3   439  INH439     -0.0320
     15  C15       54.8930   32.8320   28.7130 C.3   439  INH439     -0.0492
     16  C16       55.1270   33.1900   27.2420 C.3   439  INH439     -0.0492
     17  C17       56.4720   33.9260   27.2040 C.3   439  INH439     -0.0328
     18  C18       57.7540   32.4310   28.8240 C.3   439  INH439     -0.0590
     19  C19       58.1370   33.5840   33.2050 C.3   439  INH439     -0.0556
     20  C20       57.3590   33.4520   26.0460 C.3   439  INH439     -0.0405
     21  C21       58.6160   34.3190   25.9510 C.3   439  INH439     -0.0621
     22  C22       56.5810   33.5110   24.7270 C.3   439  INH439     -0.0502
     23  C23       57.3250   32.8640   23.5550 C.3   439  INH439     -0.0526
     24  C24       56.5200   32.9270   22.2530 C.3   439  INH439     -0.0507
     25  C25       55.2910   32.0110   22.2620 C.3   439  INH439     -0.0467
     26  C26       54.6480   31.9210   20.8760 C.3   439  INH439     -0.0627
     27  C27       54.2580   32.4620   23.2970 C.3   439  INH439     -0.0627
     28  O1        56.4380   36.1370   36.9710 O.3   439  INH439     -0.3915
     29  H1        58.7660   36.1610   33.0440 H     439  INH439      0.0274
     30  H2        57.1180   36.8760   33.0430 H     439  INH439      0.0274
     31  H3        58.2030   37.1280   35.2430 H     439  INH439      0.0290
     32  H4        58.4180   35.3480   35.3530 H     439  INH439      0.0290
     33  H5        55.7320   36.8150   35.1430 H     439  INH439      0.0596
     34  H6        54.7480   34.6040   35.5020 H     439  INH439      0.0335
     35  H7        56.3760   33.8650   35.6740 H     439  INH439      0.0335
     36  H8        53.8370   33.8170   33.5880 H     439  INH439      0.0572
     37  H9        54.0180   34.6240   31.1830 H     439  INH439      0.0310
     38  H10       54.0810   32.8490   31.4490 H     439  INH439      0.0310
     39  H11       56.4240   32.7640   31.1040 H     439  INH439      0.0309
     40  H12       56.3940   35.8050   31.2370 H     439  INH439      0.0312
     41  H13       58.7880   33.9880   30.7920 H     439  INH439      0.0268
     42  H14       58.7720   35.7830   30.8680 H     439  INH439      0.0268
     43  H15       58.9110   34.8990   28.5300 H     439  INH439      0.0271
     44  H16       57.4470   35.9000   28.8140 H     439  INH439      0.0271
     45  H17       55.3000   34.8850   29.2280 H     439  INH439      0.0309
     46  H18       53.8330   32.9270   28.9910 H     439  INH439      0.0268
     47  H19       55.2440   31.8160   28.9450 H     439  INH439      0.0268
     48  H20       54.3220   33.8430   26.8730 H     439  INH439      0.0268
     49  H21       55.1710   32.2790   26.6280 H     439  INH439      0.0268
     50  H22       56.2790   34.9950   27.0300 H     439  INH439      0.0309
     51  H23       58.1590   32.3830   29.8460 H     439  INH439      0.0235
     52  H24       58.5740   32.3200   28.0990 H     439  INH439      0.0235
     53  H25       57.0250   31.6200   28.6800 H     439  INH439      0.0235
     54  H26       58.3080   33.5210   34.2900 H     439  INH439      0.0238
     55  H27       59.0930   33.7710   32.6940 H     439  INH439      0.0238
     56  H28       57.7080   32.6370   32.8460 H     439  INH439      0.0238
     57  H29       57.6600   32.4110   26.2340 H     439  INH439      0.0301
     58  H30       59.2420   33.9680   25.1170 H     439  INH439      0.0233
     59  H31       59.1830   34.2470   26.8910 H     439  INH439      0.0233
     60  H32       58.3270   35.3660   25.7770 H     439  INH439      0.0233
     61  H33       56.3910   34.5660   24.4800 H     439  INH439      0.0268
     62  H34       55.6230   32.9880   24.8630 H     439  INH439      0.0268
     63  H35       57.5220   31.8100   23.7990 H     439  INH439      0.0265
     64  H36       58.2790   33.3910   23.4070 H     439  INH439      0.0265
     65  H37       57.1750   32.6270   21.4220 H     439  INH439      0.0268
     66  H38       56.1840   33.9630   22.0990 H     439  INH439      0.0268
     67  H39       55.6300   31.0030   22.5420 H     439  INH439      0.0295
     68  H40       53.7720   31.2570   20.9210 H     439  INH439      0.0232
     69  H41       55.3780   31.5170   20.1590 H     439  INH439      0.0232
     70  H42       54.3320   32.9240   20.5520 H     439  INH439      0.0232
     71  H43       54.7330   32.5220   24.2870 H     439  INH439      0.0232
     72  H44       53.4320   31.7370   23.3300 H     439  INH439      0.0232
     73  H45       53.8670   33.4510   23.0170 H     439  INH439      0.0232
     74  H46       56.7980   36.9850   37.2040 H     439  INH439      0.2098
@<TRIPOS>BOND
     1     1    30    1
     2     1    29    1
     3     1    10    1
     4     1     2    1
     5     2    32    1
     6     2    31    1
     7     2     3    1
     8     3    33    1
     9     3    28    1
    10     3     4    1
    11     4    35    1
    12     4    34    1
    13     4     5    1
    14     5    10    1
    15     5     6    2
    16     6    36    1
    17     6     7    1
    18     7    38    1
    19     7    37    1
    20     7     8    1
    21     8    39    1
    22     8    14    1
    23     8     9    1
    24     9    40    1
    25     9    11    1
    26     9    10    1
    27    10    19    1
    28    11    42    1
    29    11    41    1
    30    11    12    1
    31    12    44    1
    32    12    43    1
    33    12    13    1
    34    13    18    1
    35    13    17    1
    36    13    14    1
    37    14    45    1
    38    14    15    1
    39    15    47    1
    40    15    46    1
    41    15    16    1
    42    16    49    1
    43    16    48    1
    44    16    17    1
    45    17    50    1
    46    17    20    1
    47    18    53    1
    48    18    52    1
    49    18    51    1
    50    19    56    1
    51    19    55    1
    52    19    54    1
    53    20    57    1
    54    20    22    1
    55    20    21    1
    56    21    60    1
    57    21    59    1
    58    21    58    1
    59    22    62    1
    60    22    61    1
    61    22    23    1
    62    23    64    1
    63    23    63    1
    64    23    24    1
    65    24    66    1
    66    24    65    1
    67    24    25    1
    68    25    67    1
    69    25    27    1
    70    25    26    1
    71    26    70    1
    72    26    69    1
    73    26    68    1
    74    27    73    1
    75    27    72    1
    76    27    71    1
    77    28    74    1
