@<TRIPOS>MOLECULE
/tmp/ewbell/vina_1zhy_1zhy_lig/vina/vina2.pdbqt
 29 32 0 0 0
SMALL
GASTEIGER

@<TRIPOS>ATOM
      1  C1        54.2460   32.6020   23.0970 C.3   439  INH439      0.0160
      2  C2        54.0310   32.0900   21.6690 C.3   439  INH439      0.0330
      3  C3        54.8210   32.9340   20.6650 C.3   439  INH439      0.1220
      4  C4        56.3140   32.8390   20.9870 C.3   439  INH439      0.0660
      5  C5        56.5720   33.2050   22.4510 C.2   439  INH439     -0.0720
      6  C6        57.5690   34.1240   22.7570 C.2   439  INH439     -0.0230
      7  C7        57.9050   34.5850   24.0240 C.3   439  INH439      0.0330
      8  C8        57.3140   33.7270   25.1480 C.3   439  INH439     -0.0010
      9  C9        55.8510   33.3590   24.8650 C.3   439  INH439      0.0030
     10  C10       55.7090   32.5740   23.5530 C.3   439  INH439     -0.0170
     11  C11       55.2100   32.6420   26.0610 C.3   439  INH439      0.0070
     12  C12       55.3930   33.3960   27.3860 C.3   439  INH439      0.0100
     13  C13       56.8770   33.6680   27.6520 C.3   439  INH439     -0.0360
     14  C14       57.3960   34.4920   26.4720 C.3   439  INH439     -0.0010
     15  C15       58.7950   34.8760   26.9510 C.3   439  INH439      0.0060
     16  C16       58.4730   35.3780   28.3620 C.3   439  INH439      0.0060
     17  C17       57.1580   34.6940   28.7550 C.3   439  INH439     -0.0020
     18  C18       57.6690   32.3670   27.8450 C.3   439  INH439      0.0160
     19  C19       56.1750   31.1260   23.7340 C.3   439  INH439      0.0200
     20  C20       57.1930   34.1530   30.1900 C.3   439  INH439     -0.0140
     21  C21       55.9770   34.6490   30.9740 C.3   439  INH439      0.0100
     22  C22       58.4830   34.5960   30.8890 C.3   439  INH439      0.0050
     23  C23       58.2790   34.9660   32.3600 C.3   439  INH439      0.0010
     24  C24       58.7350   36.3960   32.6660 C.3   439  INH439      0.0040
     25  C25       57.7320   37.1760   33.5230 C.3   439  INH439     -0.0230
     26  C27       57.2770   36.3660   34.7390 C.3   439  INH439      0.0090
     27  C26       58.3030   38.5250   33.9690 C.3   439  INH439      0.0090
     28  O1        54.5880   32.4510   19.3390 O.3   439  INH439     -0.3950
     29  H46       54.4610   31.5100   19.3630 H     439  INH439      0.2100
@<TRIPOS>BOND
     1    28    29    1
     2    28     3    1
     3     3     4    1
     4     3     2    1
     5     4     5    1
     6     2     1    1
     7     5     6    2
     8     5    10    1
     9     6     7    1
    10     1    10    1
    11    10    19    1
    12    10     9    1
    13     7     8    1
    14     9     8    1
    15     9    11    1
    16     8    14    1
    17    11    12    1
    18    14    15    1
    19    14    13    1
    20    15    16    1
    21    12    13    1
    22    13    18    1
    23    13    17    1
    24    16    17    1
    25    17    20    1
    26    20    22    1
    27    20    21    1
    28    22    23    1
    29    23    24    1
    30    24    25    1
    31    25    27    1
    32    25    26    1
