@<TRIPOS>MOLECULE
/tmp/ewbell/vina_1zhy_1zhy_lig/vina/vina3.pdbqt
 29 32 0 0 0
SMALL
GASTEIGER

@<TRIPOS>ATOM
      1  C1        57.2620   32.7950   31.7550 C.3   439  INH439      0.0160
      2  C2        57.4360   33.3140   33.1870 C.3   439  INH439      0.0330
      3  C3        58.6330   34.2650   33.2770 C.3   439  INH439      0.1220
      4  C4        58.3950   35.4670   32.3590 C.3   439  INH439      0.0660
      5  C5        58.0730   35.0000   30.9370 C.2   439  INH439     -0.0720
      6  C6        58.7550   35.5650   29.8660 C.2   439  INH439     -0.0230
      7  C7        58.6060   35.2320   28.5250 C.3   439  INH439      0.0330
      8  C8        57.3420   34.4080   28.2520 C.3   439  INH439     -0.0010
      9  C9        57.1470   33.3110   29.3070 C.3   439  INH439      0.0030
     10  C10       57.0260   33.9000   30.7190 C.3   439  INH439     -0.0170
     11  C11       55.9780   32.3840   28.9440 C.3   439  INH439      0.0070
     12  C12       56.0660   31.8320   27.5140 C.3   439  INH439      0.0100
     13  C13       56.1830   32.9750   26.5010 C.3   439  INH439     -0.0360
     14  C14       57.4410   33.7650   26.8660 C.3   439  INH439     -0.0010
     15  C15       57.5640   34.7200   25.6800 C.3   439  INH439      0.0060
     16  C16       57.3920   33.7370   24.5170 C.3   439  INH439      0.0060
     17  C17       56.6120   32.5480   25.0930 C.3   439  INH439     -0.0020
     18  C18       54.9260   33.8560   26.4890 C.3   439  INH439      0.0160
     19  C19       55.6440   34.5280   30.9280 C.3   439  INH439      0.0200
     20  C20       55.4920   32.0810   24.1550 C.3   439  INH439     -0.0140
     21  C21       55.8800   30.7660   23.4780 C.3   439  INH439      0.0100
     22  C22       55.2100   33.1530   23.0970 C.3   439  INH439      0.0050
     23  C23       54.8210   32.5720   21.7350 C.3   439  INH439      0.0010
     24  C24       55.6370   33.1840   20.5910 C.3   439  INH439      0.0040
     25  C25       57.1330   33.2790   20.9040 C.3   439  INH439     -0.0230
     26  C27       57.8180   31.9140   20.8160 C.3   439  INH439      0.0090
     27  C26       57.8370   34.2850   19.9890 C.3   439  INH439      0.0090
     28  O1        58.7880   34.7180   34.6240 O.3   439  INH439     -0.3950
     29  H46       58.7000   33.9820   35.2180 H     439  INH439      0.2100
@<TRIPOS>BOND
     1    27    25    1
     2    24    25    1
     3    24    23    1
     4    26    25    1
     5    23    22    1
     6    22    20    1
     7    21    20    1
     8    20    17    1
     9    16    17    1
    10    16    15    1
    11    17    13    1
    12    15    14    1
    13    18    13    1
    14    13    14    1
    15    13    12    1
    16    14     8    1
    17    12    11    1
    18     8     7    1
    19     8     9    1
    20     7     6    1
    21    11     9    1
    22     9    10    1
    23     6     5    2
    24    10    19    1
    25    10     5    1
    26    10     1    1
    27     5     4    1
    28     1     2    1
    29     4     3    1
    30     2     3    1
    31     3    28    1
    32    28    29    1
