@<TRIPOS>MOLECULE
/tmp/ewbell/vina_1zhy_1zhy_lig/vina/vina4.pdbqt
 29 32 0 0 0
SMALL
GASTEIGER

@<TRIPOS>ATOM
      1  C1        55.3340   33.4250   26.2210 C.3   439  INH439      0.0160
      2  C2        55.4000   33.0060   24.7480 C.3   439  INH439      0.0330
      3  C3        56.2910   33.9620   23.9510 C.3   439  INH439      0.1220
      4  C4        57.7110   33.9260   24.5210 C.3   439  INH439      0.0660
      5  C5        57.6900   34.2000   26.0280 C.2   439  INH439     -0.0720
      6  C6        58.5580   35.1480   26.5580 C.2   439  INH439     -0.0230
      7  C7        58.6420   35.5350   27.8900 C.3   439  INH439      0.0330
      8  C8        57.9270   34.5670   28.8390 C.3   439  INH439     -0.0010
      9  C9        56.5610   34.1400   28.2840 C.3   439  INH439      0.0030
     10  C10       56.6970   33.4450   26.9210 C.3   439  INH439     -0.0170
     11  C11       55.7750   33.3050   29.3040 C.3   439  INH439      0.0070
     12  C12       55.6800   33.9710   30.6840 C.3   439  INH439      0.0100
     13  C13       57.0760   34.3040   31.2200 C.3   439  INH439     -0.0360
     14  C14       57.7310   35.2380   30.2010 C.3   439  INH439     -0.0010
     15  C15       59.0000   35.6630   30.9390 C.3   439  INH439      0.0060
     16  C16       58.4100   36.0440   32.3000 C.3   439  INH439      0.0060
     17  C17       57.0960   35.2620   32.4160 C.3   439  INH439     -0.0020
     18  C18       57.9080   33.0380   31.4680 C.3   439  INH439      0.0160
     19  C19       57.2210   32.0150   27.0920 C.3   439  INH439      0.0200
     20  C20       56.9230   34.6230   33.7990 C.3   439  INH439     -0.0140
     21  C21       55.4870   34.8090   34.2940 C.3   439  INH439      0.0100
     22  C22       57.9050   35.2470   34.7960 C.3   439  INH439      0.0050
     23  C23       57.2500   36.2560   35.7420 C.3   439  INH439      0.0010
     24  C24       57.6130   37.7020   35.3880 C.3   439  INH439      0.0040
     25  C25       57.9980   38.5410   36.6120 C.3   439  INH439     -0.0230
     26  C27       58.3960   39.9650   36.2180 C.3   439  INH439      0.0090
     27  C26       56.8720   38.5740   37.6480 C.3   439  INH439      0.0090
     28  O1        56.3190   33.5630   22.5780 O.3   439  INH439     -0.3950
     29  H46       55.4720   33.7300   22.1810 H     439  INH439      0.2100
@<TRIPOS>BOND
     1    29    28    1
     2    28     3    1
     3     3     4    1
     4     3     2    1
     5     4     5    1
     6     2     1    1
     7     5     6    2
     8     5    10    1
     9     1    10    1
    10     6     7    1
    11    10    19    1
    12    10     9    1
    13     7     8    1
    14     9     8    1
    15     9    11    1
    16     8    14    1
    17    11    12    1
    18    14    15    1
    19    14    13    1
    20    12    13    1
    21    15    16    1
    22    13    18    1
    23    13    17    1
    24    16    17    1
    25    17    20    1
    26    20    21    1
    27    20    22    1
    28    22    23    1
    29    24    23    1
    30    24    25    1
    31    26    25    1
    32    25    27    1
