@<TRIPOS>MOLECULE
/tmp/ewbell/vina_1zhy_1zhy_lig/vina/vina5.pdbqt
 29 32 0 0 0
SMALL
GASTEIGER

@<TRIPOS>ATOM
      1  C1        54.2330   32.8130   23.0260 C.3   439  INH439      0.0160
      2  C2        53.9890   32.2520   21.6210 C.3   439  INH439      0.0330
      3  C3        54.8470   32.9870   20.5870 C.3   439  INH439      0.1220
      4  C4        56.3270   32.7940   20.9280 C.3   439  INH439      0.0660
      5  C5        56.6020   33.2080   22.3760 C.2   439  INH439     -0.0720
      6  C6        57.6640   34.0620   22.6490 C.2   439  INH439     -0.0230
      7  C7        58.0260   34.5560   23.8970 C.3   439  INH439      0.0330
      8  C8        57.3640   33.7970   25.0530 C.3   439  INH439     -0.0010
      9  C9        55.8790   33.5280   24.7730 C.3   439  INH439      0.0030
     10  C10       55.6870   32.6960   23.4970 C.3   439  INH439     -0.0170
     11  C11       55.1780   32.9180   25.9940 C.3   439  INH439      0.0070
     12  C12       55.4100   33.7170   27.2850 C.3   439  INH439      0.0100
     13  C13       56.9080   33.8880   27.5530 C.3   439  INH439     -0.0360
     14  C14       57.4950   34.6150   26.3410 C.3   439  INH439     -0.0010
     15  C15       58.9160   34.9140   26.8160 C.3   439  INH439      0.0060
     16  C16       58.6240   35.5050   28.1990 C.3   439  INH439      0.0060
     17  C17       57.2580   34.9400   28.6100 C.3   439  INH439     -0.0020
     18  C18       57.5980   32.5420   27.8130 C.3   439  INH439      0.0160
     19  C19       56.0410   31.2270   23.7490 C.3   439  INH439      0.0200
     20  C20       57.2430   34.4660   30.0690 C.3   439  INH439     -0.0140
     21  C21       57.3760   35.6600   31.0160 C.3   439  INH439      0.0100
     22  C22       58.3860   33.4740   30.3130 C.3   439  INH439      0.0050
     23  C23       57.9460   32.2150   31.0640 C.3   439  INH439      0.0010
     24  C24       56.7970   32.4950   32.0380 C.3   439  INH439      0.0040
     25  C25       55.4630   31.8930   31.5820 C.3   439  INH439     -0.0230
     26  C27       54.3410   32.9340   31.5900 C.3   439  INH439      0.0090
     27  C26       55.5800   31.2510   30.1970 C.3   439  INH439      0.0090
     28  O1        54.5870   32.4610   19.2830 O.3   439  INH439     -0.3950
     29  H46       53.8460   32.9170   18.9000 H     439  INH439      0.2100
@<TRIPOS>BOND
     1    29    28    1
     2    28     3    1
     3     3     4    1
     4     3     2    1
     5     4     5    1
     6     2     1    1
     7     5     6    2
     8     5    10    1
     9     6     7    1
    10     1    10    1
    11    10    19    1
    12    10     9    1
    13     7     8    1
    14     9     8    1
    15     9    11    1
    16     8    14    1
    17    11    12    1
    18    14    15    1
    19    14    13    1
    20    15    16    1
    21    12    13    1
    22    13    18    1
    23    13    17    1
    24    16    17    1
    25    17    20    1
    26    20    22    1
    27    20    21    1
    28    27    25    1
    29    22    23    1
    30    23    24    1
    31    25    26    1
    32    25    24    1
