@<TRIPOS>MOLECULE
/tmp/ewbell/vina_1zhy_1zhy_lig/vina/vina1.pdbqt
 29 32 0 0 0
SMALL
GASTEIGER

@<TRIPOS>ATOM
      1  C1        57.6190   36.3200   32.8250 C.3   439  INH439      0.0160
      2  C2        57.7360   36.5870   34.3300 C.3   439  INH439      0.0330
      3  C3        56.3870   36.3810   35.0240 C.3   439  INH439      0.1220
      4  C4        55.9320   34.9330   34.8300 C.3   439  INH439      0.0660
      5  C5        55.9330   34.5650   33.3430 C.2   439  INH439     -0.0720
      6  C6        54.8120   33.9550   32.7940 C.2   439  INH439     -0.0230
      7  C7        54.6410   33.5890   31.4640 C.3   439  INH439      0.0330
      8  C8        55.9530   33.5860   30.6720 C.3   439  INH439     -0.0010
      9  C9        56.8050   34.8230   30.9890 C.3   439  INH439      0.0030
     10  C10       57.1580   34.8990   32.4820 C.3   439  INH439     -0.0170
     11  C11       58.0380   34.9060   30.0790 C.3   439  INH439      0.0070
     12  C12       57.6960   34.7790   28.5880 C.3   439  INH439      0.0100
     13  C13       56.9140   33.4890   28.3200 C.3   439  INH439     -0.0360
     14  C14       55.6450   33.5560   29.1720 C.3   439  INH439     -0.0010
     15  C15       54.8640   32.3450   28.6630 C.3   439  INH439      0.0060
     16  C16       54.9770   32.5640   27.1510 C.3   439  INH439      0.0060
     17  C17       56.2340   33.4190   26.9490 C.3   439  INH439     -0.0020
     18  C18       57.7530   32.2400   28.6230 C.3   439  INH439      0.0160
     19  C19       58.2580   33.8910   32.8290 C.3   439  INH439      0.0200
     20  C20       57.0990   32.9120   25.7880 C.3   439  INH439     -0.0140
     21  C21       57.5270   34.0790   24.8960 C.3   439  INH439      0.0100
     22  C22       56.3240   31.8790   24.9640 C.3   439  INH439      0.0050
     23  C23       55.9420   32.3800   23.5690 C.3   439  INH439      0.0010
     24  C24       56.2620   31.3520   22.4780 C.3   439  INH439      0.0040
     25  C25       57.1880   31.9030   21.3880 C.3   439  INH439     -0.0230
     26  C27       56.6520   33.2090   20.7970 C.3   439  INH439      0.0090
     27  C26       58.6130   32.1040   21.9090 C.3   439  INH439      0.0090
     28  O1        56.5160   36.6570   36.4210 O.3   439  INH439     -0.3950
     29  H46       56.8250   35.8790   36.8700 H     439  INH439      0.2100
@<TRIPOS>BOND
     1    26    25    1
     2    25    27    1
     3    25    24    1
     4    24    23    1
     5    23    22    1
     6    21    20    1
     7    22    20    1
     8    20    17    1
     9    17    16    1
    10    17    13    1
    11    16    15    1
    12    13    12    1
    13    13    18    1
    14    13    14    1
    15    12    11    1
    16    15    14    1
    17    14     8    1
    18    11     9    1
    19     8     9    1
    20     8     7    1
    21     9    10    1
    22     7     6    1
    23    10     1    1
    24    10    19    1
    25    10     5    1
    26     6     5    2
    27     1     2    1
    28     5     4    1
    29     2     3    1
    30     4     3    1
    31     3    28    1
    32    28    29    1
