@<TRIPOS>MOLECULE
./ligand/1zhx_lig.pdb
 75 78 0 0 0
SMALL
GASTEIGER

@<TRIPOS>ATOM
      1  C1        57.5640   32.6010   28.8800 C.3   439  INH439     -0.0590
      2  C2        56.7780   33.9060   28.7080 C.3   439  INH439     -0.0259
      3  C3        57.5850   35.1200   29.1810 C.3   439  INH439     -0.0468
      4  C4        57.8430   35.0350   30.6900 C.3   439  INH439     -0.0486
      5  C5        56.5470   34.9240   31.5050 C.3   439  INH439     -0.0285
      6  C6        56.7950   34.8400   33.0180 C.3   439  INH439     -0.0078
      7  C7        57.8220   33.7500   33.3420 C.3   439  INH439     -0.0556
      8  C8        57.2940   36.1940   33.5370 C.3   439  INH439     -0.0413
      9  C9        57.3230   36.2940   35.0670 C.3   439  INH439     -0.0258
     10  C10       55.9200   36.0910   35.6470 C.3   439  INH439      0.0590
     11  O1        55.9540   36.2200   37.0710 O.3   439  INH439     -0.3915
     12  C11       55.4080   34.6980   35.2690 C.3   439  INH439     -0.0051
     13  C12       55.4930   34.4930   33.7540 C.2   439  INH439     -0.0648
     14  C13       54.3830   34.0130   33.0680 C.2   439  INH439     -0.0839
     15  C14       54.2920   33.7980   31.6970 C.3   439  INH439     -0.0311
     16  C15       55.6590   33.7760   31.0050 C.3   439  INH439     -0.0307
     17  C16       55.4640   33.9090   29.4910 C.3   439  INH439     -0.0320
     18  C17       54.6730   32.7930   28.8090 C.3   439  INH439     -0.0492
     19  C18       54.9490   33.0860   27.3310 C.3   439  INH439     -0.0492
     20  C19       56.1500   34.0410   27.3160 C.3   439  INH439     -0.0328
     21  C20       57.0540   33.8090   26.0980 C.3   439  INH439     -0.0405
     22  C21       58.1520   34.8720   26.0130 C.3   439  INH439     -0.0621
     23  C22       56.1890   33.8170   24.8330 C.3   439  INH439     -0.0501
     24  C23       56.9370   33.5070   23.5340 C.3   439  INH439     -0.0502
     25  C24       55.9180   33.2750   22.4140 C.3   439  INH439     -0.0245
     26  C25       56.5390   33.1810   21.0170 C.3   439  INH439      0.0605
     27  C26       57.6000   32.0790   20.9620 C.3   439  INH439     -0.0363
     28  C27       55.4390   32.8720   19.9990 C.3   439  INH439     -0.0363
     29  O2        57.1350   34.4420   20.7050 O.3   439  INH439     -0.3891
     30  H1        57.9900   32.5600   29.8930 H     439  INH439      0.0235
     31  H2        58.3760   32.5620   28.1390 H     439  INH439      0.0235
     32  H3        56.8900   31.7450   28.7310 H     439  INH439      0.0235
     33  H4        57.0210   36.0380   28.9610 H     439  INH439      0.0271
     34  H5        58.5480   35.1450   28.6490 H     439  INH439      0.0271
     35  H6        58.3820   35.9400   31.0070 H     439  INH439      0.0268
     36  H7        58.4630   34.1490   30.8920 H     439  INH439      0.0268
     37  H8        55.9880   35.8550   31.3320 H     439  INH439      0.0312
     38  H9        57.9820   33.7090   34.4300 H     439  INH439      0.0238
     39  H10       58.7730   33.9810   32.8400 H     439  INH439      0.0238
     40  H11       57.4480   32.7770   32.9900 H     439  INH439      0.0238
     41  H12       56.6300   36.9810   33.1500 H     439  INH439      0.0274
     42  H13       58.3140   36.3570   33.1590 H     439  INH439      0.0274
     43  H14       57.6940   37.2880   35.3570 H     439  INH439      0.0290
     44  H15       57.9950   35.5210   35.4670 H     439  INH439      0.0290
     45  H16       55.2430   36.8520   35.2310 H     439  INH439      0.0596
     46  H17       55.0800   36.0930   37.4210 H     439  INH439      0.2098
     47  H18       54.3610   34.5970   35.5900 H     439  INH439      0.0335
     48  H19       56.0220   33.9370   35.7730 H     439  INH439      0.0335
     49  H20       53.4990   33.7830   33.6620 H     439  INH439      0.0572
     50  H21       53.6880   34.6040   31.2550 H     439  INH439      0.0310
     51  H22       53.7960   32.8310   31.5250 H     439  INH439      0.0310
     52  H23       56.1550   32.8190   31.2250 H     439  INH439      0.0309
     53  H24       54.9430   34.8630   29.3240 H     439  INH439      0.0309
     54  H25       53.6000   32.8620   29.0390 H     439  INH439      0.0268
     55  H26       55.0470   31.8000   29.0990 H     439  INH439      0.0268
     56  H27       54.0740   33.5620   26.8640 H     439  INH439      0.0268
     57  H28       55.1910   32.1570   26.7940 H     439  INH439      0.0268
     58  H29       55.7760   35.0710   27.2240 H     439  INH439      0.0309
     59  H30       57.5330   32.8230   26.1950 H     439  INH439      0.0301
     60  H31       58.7820   34.6790   25.1320 H     439  INH439      0.0233
     61  H32       58.7710   34.8330   26.9220 H     439  INH439      0.0233
     62  H33       57.6930   35.8680   25.9240 H     439  INH439      0.0233
     63  H34       55.7360   34.8150   24.7360 H     439  INH439      0.0268
     64  H35       55.3960   33.0650   24.9580 H     439  INH439      0.0268
     65  H36       57.5500   32.6030   23.6680 H     439  INH439      0.0266
     66  H37       57.5870   34.3550   23.2710 H     439  INH439      0.0266
     67  H38       55.2020   34.1100   22.4190 H     439  INH439      0.0293
     68  H39       55.3860   32.3350   22.6200 H     439  INH439      0.0293
     69  H40       58.0290   32.0330   19.9500 H     439  INH439      0.0257
     70  H41       57.1370   31.1120   21.2080 H     439  INH439      0.0257
     71  H42       58.3960   32.3000   21.6880 H     439  INH439      0.0257
     72  H43       54.6740   33.6610   20.0350 H     439  INH439      0.0257
     73  H44       54.9780   31.9030   20.2400 H     439  INH439      0.0257
     74  H45       55.8750   32.8290   18.9900 H     439  INH439      0.0257
     75  H46       57.8180   34.6340   21.3370 H     439  INH439      0.2101
@<TRIPOS>BOND
     1     1    32    1
     2     1    31    1
     3     1    30    1
     4     1     2    1
     5     2    20    1
     6     2    17    1
     7     2     3    1
     8     3    34    1
     9     3    33    1
    10     3     4    1
    11     4    36    1
    12     4    35    1
    13     4     5    1
    14     5    37    1
    15     5    16    1
    16     5     6    1
    17     6    13    1
    18     6     8    1
    19     6     7    1
    20     7    40    1
    21     7    39    1
    22     7    38    1
    23     8    42    1
    24     8    41    1
    25     8     9    1
    26     9    44    1
    27     9    43    1
    28     9    10    1
    29    10    45    1
    30    10    12    1
    31    10    11    1
    32    11    46    1
    33    12    48    1
    34    12    47    1
    35    12    13    1
    36    13    14    2
    37    14    49    1
    38    14    15    1
    39    15    51    1
    40    15    50    1
    41    15    16    1
    42    16    52    1
    43    16    17    1
    44    17    53    1
    45    17    18    1
    46    18    55    1
    47    18    54    1
    48    18    19    1
    49    19    57    1
    50    19    56    1
    51    19    20    1
    52    20    58    1
    53    20    21    1
    54    21    59    1
    55    21    23    1
    56    21    22    1
    57    22    62    1
    58    22    61    1
    59    22    60    1
    60    23    64    1
    61    23    63    1
    62    23    24    1
    63    24    66    1
    64    24    65    1
    65    24    25    1
    66    25    68    1
    67    25    67    1
    68    25    26    1
    69    26    29    1
    70    26    28    1
    71    26    27    1
    72    27    71    1
    73    27    70    1
    74    27    69    1
    75    28    74    1
    76    28    73    1
    77    28    72    1
    78    29    75    1
