@<TRIPOS>MOLECULE
/tmp/ewbell/vina_1zhx_1zhx_lig/vina/vina1.pdbqt
 31 34 0 0 0
SMALL
GASTEIGER

@<TRIPOS>ATOM
      1  C1        56.5060   34.6530   27.1150 C.3   439  INH439      0.0160
      2  C2        55.8360   33.3400   27.5360 C.3   439  INH439     -0.0360
      3  C3        54.5190   33.5890   28.2790 C.3   439  INH439      0.0100
      4  C4        54.7820   34.3160   29.6030 C.3   439  INH439      0.0070
      5  C5        55.7550   33.5520   30.5120 C.3   439  INH439      0.0030
      6  C6        56.0240   34.2710   31.8420 C.3   439  INH439     -0.0170
      7  C7        56.4230   35.7310   31.6010 C.3   439  INH439      0.0200
      8  C8        54.7700   34.2150   32.7240 C.3   439  INH439      0.0160
      9  C9        55.0120   34.6730   34.1680 C.3   439  INH439      0.0330
     10  C10       56.0650   33.7900   34.8430 C.3   439  INH439      0.1220
     11  C11       57.3890   33.8980   34.0800 C.3   439  INH439      0.0660
     12  C12       57.1730   33.5880   32.5960 C.2   439  INH439     -0.0720
     13  C13       58.0120   32.6790   31.9610 C.2   439  INH439     -0.0230
     14  C14       57.9320   32.2740   30.6330 C.3   439  INH439      0.0330
     15  C15       57.0560   33.1970   29.7800 C.3   439  INH439     -0.0010
     16  C16       56.7190   32.4980   28.4580 C.3   439  INH439     -0.0010
     17  C17       57.9010   32.1510   27.5540 C.3   439  INH439      0.0060
     18  C18       57.1870   31.7790   26.2510 C.3   439  INH439      0.0060
     19  C19       55.7580   32.3210   26.3930 C.3   439  INH439     -0.0020
     20  C20       55.1870   32.7940   25.0500 C.3   439  INH439     -0.0140
     21  C21       54.0670   31.8690   24.5680 C.3   439  INH439      0.0100
     22  C22       56.3230   32.8530   24.0230 C.3   439  INH439      0.0050
     23  C23       56.0660   33.7670   22.8230 C.3   439  INH439      0.0030
     24  C24       56.1760   32.9440   21.5350 C.3   439  INH439      0.0370
     25  C25       54.8880   32.9090   20.7070 C.3   439  INH439      0.0510
     26  C27       54.3750   31.4700   20.6360 C.3   439  INH439      0.0450
     27  C26       55.1350   33.4270   19.2880 C.3   439  INH439      0.0450
     28  O2        53.9140   33.7300   21.3580 O.3   439  INH439     -0.3910
     29  H46       54.0070   34.6260   21.0590 H     439  INH439      0.2100
     30  O1        56.2580   34.2040   36.1990 O.3   439  INH439     -0.3950
     31  H17       56.3830   33.4400   36.7490 H     439  INH439      0.2100
@<TRIPOS>BOND
     1    27    25    1
     2    26    25    1
     3    25    28    1
     4    25    24    1
     5    29    28    1
     6    24    23    1
     7    23    22    1
     8    22    20    1
     9    21    20    1
    10    20    19    1
    11    18    19    1
    12    18    17    1
    13    19     2    1
    14     1     2    1
    15     2     3    1
    16     2    16    1
    17    17    16    1
    18     3     4    1
    19    16    15    1
    20     4     5    1
    21    15     5    1
    22    15    14    1
    23     5     6    1
    24    14    13    1
    25     7     6    1
    26     6    12    1
    27     6     8    1
    28    13    12    2
    29    12    11    1
    30     8     9    1
    31    11    10    1
    32     9    10    1
    33    10    30    1
    34    30    31    1
