@<TRIPOS>MOLECULE
/tmp/ewbell/vina_1zhx_1zhx_lig/vina/vina4.pdbqt
 31 34 0 0 0
SMALL
GASTEIGER

@<TRIPOS>ATOM
      1  C1        55.8400   33.9960   24.5760 C.3   439  INH439      0.0160
      2  C2        57.2970   33.5450   24.7290 C.3   439  INH439     -0.0360
      3  C3        57.4060   32.2380   25.5220 C.3   439  INH439      0.0100
      4  C4        56.9240   32.4450   26.9630 C.3   439  INH439      0.0070
      5  C5        57.6950   33.5570   27.6880 C.3   439  INH439      0.0030
      6  C6        57.2210   33.7710   29.1330 C.3   439  INH439     -0.0170
      7  C7        55.6990   33.9390   29.1880 C.3   439  INH439      0.0200
      8  C8        57.6430   32.5770   29.9990 C.3   439  INH439      0.0160
      9  C9        57.4490   32.8080   31.5020 C.3   439  INH439      0.0330
     10  C10       58.2760   34.0070   31.9740 C.3   439  INH439      0.1220
     11  C11       57.8170   35.2670   31.2350 C.3   439  INH439      0.0660
     12  C12       57.8550   35.0390   29.7210 C.2   439  INH439     -0.0720
     13  C13       58.4810   35.9760   28.9060 C.2   439  INH439     -0.0230
     14  C14       58.6220   35.9030   27.5250 C.3   439  INH439      0.0330
     15  C15       57.6940   34.8650   26.8850 C.3   439  INH439     -0.0010
     16  C16       58.1600   34.5810   25.4530 C.3   439  INH439     -0.0010
     17  C17       58.1350   35.7630   24.4850 C.3   439  INH439      0.0060
     18  C18       58.3470   35.0590   23.1420 C.3   439  INH439      0.0060
     19  C19       58.0690   33.5730   23.4050 C.3   439  INH439     -0.0020
     20  C20       57.4330   32.8830   22.1920 C.3   439  INH439     -0.0140
     21  C21       58.3990   31.8810   21.5550 C.3   439  INH439      0.0100
     22  C22       57.0130   33.9540   21.1790 C.3   439  INH439      0.0050
     23  C23       55.6340   33.7440   20.5480 C.3   439  INH439      0.0030
     24  C24       54.5970   33.5670   21.6610 C.3   439  INH439      0.0370
     25  C25       53.8300   32.2420   21.5910 C.3   439  INH439      0.0510
     26  C27       54.4010   31.2760   22.6310 C.3   439  INH439      0.0450
     27  C26       53.9470   31.6140   20.2010 C.3   439  INH439      0.0450
     28  O2        52.4560   32.5040   21.8890 O.3   439  INH439     -0.3910
     29  H46       52.3930   32.9520   22.7240 H     439  INH439      0.2100
     30  O1        58.1130   34.1920   33.3830 O.3   439  INH439     -0.3950
     31  H17       58.0020   35.1160   33.5700 H     439  INH439      0.2100
@<TRIPOS>BOND
     1    27    25    1
     2    23    22    1
     3    23    24    1
     4    22    20    1
     5    21    20    1
     6    25    24    1
     7    25    28    1
     8    25    26    1
     9    28    29    1
    10    20    19    1
    11    18    19    1
    12    18    17    1
    13    19     2    1
    14    17    16    1
    15     1     2    1
    16     2    16    1
    17     2     3    1
    18    16    15    1
    19     3     4    1
    20    15    14    1
    21    15     5    1
    22     4     5    1
    23    14    13    1
    24     5     6    1
    25    13    12    2
    26     6     7    1
    27     6    12    1
    28     6     8    1
    29    12    11    1
    30     8     9    1
    31    11    10    1
    32     9    10    1
    33    10    30    1
    34    30    31    1
