@<TRIPOS>MOLECULE
/tmp/ewbell/vina_1zhx_1zhx_lig/vina/vina5.pdbqt
 31 34 0 0 0
SMALL
GASTEIGER

@<TRIPOS>ATOM
      1  C1        56.2920   34.8350   28.9260 C.3   439  INH439      0.0160
      2  C2        56.7430   33.3740   28.8180 C.3   439  INH439     -0.0360
      3  C3        58.1220   33.2540   28.1600 C.3   439  INH439      0.0100
      4  C4        58.0630   33.7350   26.7050 C.3   439  INH439      0.0070
      5  C5        57.0220   32.9730   25.8730 C.3   439  INH439      0.0030
      6  C6        56.9570   33.4470   24.4140 C.3   439  INH439     -0.0170
      7  C7        56.8080   34.9700   24.3420 C.3   439  INH439      0.0200
      8  C8        58.2270   33.0140   23.6720 C.3   439  INH439      0.0160
      9  C9        58.1480   33.2080   22.1530 C.3   439  INH439      0.0330
     10  C10       56.9950   32.3900   21.5640 C.3   439  INH439      0.1220
     11  C11       55.6720   32.8600   22.1750 C.3   439  INH439      0.0660
     12  C12       55.7480   32.8220   23.7040 C.2   439  INH439     -0.0720
     13  C13       54.7290   32.2050   24.4210 C.2   439  INH439     -0.0230
     14  C14       54.6640   32.0650   25.8030 C.3   439  INH439      0.0330
     15  C15       55.6410   32.9850   26.5430 C.3   439  INH439     -0.0010
     16  C16       55.7780   32.5190   27.9960 C.3   439  INH439     -0.0010
     17  C17       54.5050   32.5540   28.8420 C.3   439  INH439      0.0060
     18  C18       55.0710   32.3380   30.2490 C.3   439  INH439      0.0060
     19  C19       56.5780   32.6040   30.1340 C.3   439  INH439     -0.0020
     20  C20       57.1490   33.2360   31.4100 C.3   439  INH439     -0.0140
     21  C21       58.2680   32.3750   32.0010 C.3   439  INH439      0.0100
     22  C22       56.0120   33.4220   32.4200 C.3   439  INH439      0.0050
     23  C23       55.7410   34.8710   32.8320 C.3   439  INH439      0.0030
     24  C24       55.8650   34.9890   34.3540 C.3   439  INH439      0.0370
     25  C25       57.1240   35.7270   34.8210 C.3   439  INH439      0.0510
     26  C27       56.9700   36.0980   36.2980 C.3   439  INH439      0.0450
     27  C26       57.3490   36.9990   34.0020 C.3   439  INH439      0.0450
     28  O2        58.2420   34.8480   34.6660 O.3   439  INH439     -0.3910
     29  H46       58.7400   34.8260   35.4740 H     439  INH439      0.2100
     30  O1        56.9530   32.5520   20.1440 O.3   439  INH439     -0.3950
     31  H17       56.8730   31.7010   19.7300 H     439  INH439      0.2100
@<TRIPOS>BOND
     1    31    30    1
     2    30    10    1
     3    10     9    1
     4    10    11    1
     5     9     8    1
     6    11    12    1
     7     8     6    1
     8    12     6    1
     9    12    13    2
    10     7     6    1
    11     6     5    1
    12    13    14    1
    13    14    15    1
    14     5    15    1
    15     5     4    1
    16    15    16    1
    17     4     3    1
    18    16     2    1
    19    16    17    1
    20     3     2    1
    21     2     1    1
    22     2    19    1
    23    17    18    1
    24    19    18    1
    25    19    20    1
    26    20    21    1
    27    20    22    1
    28    22    23    1
    29    23    24    1
    30    27    25    1
    31    24    25    1
    32    28    25    1
    33    28    29    1
    34    25    26    1
