@<TRIPOS>MOLECULE
/tmp/ewbell/vina_1zhx_1zhx_lig/vina/vina3.pdbqt
 31 34 0 0 0
SMALL
GASTEIGER

@<TRIPOS>ATOM
      1  C1        57.2150   31.9280   27.2000 C.3   439  INH439      0.0160
      2  C2        56.4630   33.2600   27.0960 C.3   439  INH439     -0.0360
      3  C3        55.0330   33.0650   26.5810 C.3   439  INH439      0.0100
      4  C4        55.0510   32.5320   25.1440 C.3   439  INH439      0.0070
      5  C5        55.8270   33.4460   24.1850 C.3   439  INH439      0.0030
      6  C6        55.8490   32.9220   22.7420 C.3   439  INH439     -0.0170
      7  C7        56.3030   31.4590   22.7010 C.3   439  INH439      0.0200
      8  C8        54.4520   33.0500   22.1230 C.3   439  INH439      0.0160
      9  C9        54.4240   32.8000   20.6110 C.3   439  INH439      0.0330
     10  C10       55.3210   33.8040   19.8810 C.3   439  INH439      0.1220
     11  C11       56.7650   33.6430   20.3650 C.3   439  INH439      0.0660
     12  C12       56.8290   33.7430   21.8910 C.2   439  INH439     -0.0720
     13  C13       57.7620   34.5890   22.4810 C.2   439  INH439     -0.0230
     14  C14       57.9280   34.8090   23.8440 C.3   439  INH439      0.0330
     15  C15       57.2390   33.7480   24.7080 C.3   439  INH439     -0.0010
     16  C16       57.1480   34.2500   26.1520 C.3   439  INH439     -0.0010
     17  C17       58.4750   34.5160   26.8620 C.3   439  INH439      0.0060
     18  C18       58.0140   34.6840   28.3130 C.3   439  INH439      0.0060
     19  C19       56.5900   34.1130   28.3640 C.3   439  INH439     -0.0020
     20  C20       56.2870   33.4440   29.7100 C.3   439  INH439     -0.0140
     21  C21       55.0940   34.1070   30.4020 C.3   439  INH439      0.0100
     22  C22       57.5380   33.5190   30.5920 C.3   439  INH439      0.0050
     23  C23       57.3560   33.0030   32.0220 C.3   439  INH439      0.0030
     24  C24       58.1900   33.8650   32.9740 C.3   439  INH439      0.0370
     25  C25       57.3660   34.8640   33.7930 C.3   439  INH439      0.0510
     26  C27       55.9530   34.3100   33.9880 C.3   439  INH439      0.0450
     27  C26       57.2830   36.2170   33.0820 C.3   439  INH439      0.0450
     28  O2        57.9940   35.0250   35.0670 O.3   439  INH439     -0.3910
     29  H46       58.3880   35.8880   35.1180 H     439  INH439      0.2100
     30  O1        55.2600   33.5820   18.4690 O.3   439  INH439     -0.3950
     31  H17       54.7750   32.7840   18.2960 H     439  INH439      0.2100
@<TRIPOS>BOND
     1    31    30    1
     2    30    10    1
     3    10    11    1
     4    10     9    1
     5    11    12    1
     6     9     8    1
     7    12    13    2
     8    12     6    1
     9     8     6    1
    10    13    14    1
    11     7     6    1
    12     6     5    1
    13    14    15    1
    14     5    15    1
    15     5     4    1
    16    15    16    1
    17     4     3    1
    18    16    17    1
    19    16     2    1
    20     3     2    1
    21    17    18    1
    22     2     1    1
    23     2    19    1
    24    18    19    1
    25    19    20    1
    26    20    21    1
    27    20    22    1
    28    22    23    1
    29    23    24    1
    30    24    25    1
    31    27    25    1
    32    25    26    1
    33    25    28    1
    34    28    29    1
