@<TRIPOS>MOLECULE
/tmp/ewbell/vina_1zhx_1zhx_lig/vina/vina2.pdbqt
 31 34 0 0 0
SMALL
GASTEIGER

@<TRIPOS>ATOM
      1  C1        57.4660   32.3040   28.7550 C.3   439  INH439      0.0160
      2  C2        56.6760   33.5840   28.4560 C.3   439  INH439     -0.0360
      3  C3        57.4920   34.8410   28.7780 C.3   439  INH439      0.0100
      4  C4        57.7780   34.9210   30.2820 C.3   439  INH439      0.0070
      5  C5        56.4980   34.9030   31.1290 C.3   439  INH439      0.0030
      6  C6        56.7750   34.9840   32.6370 C.3   439  INH439     -0.0170
      7  C7        57.8080   33.9340   33.0590 C.3   439  INH439      0.0200
      8  C8        57.2830   36.3860   32.9950 C.3   439  INH439      0.0160
      9  C9        57.3410   36.6530   34.5040 C.3   439  INH439      0.0330
     10  C10       55.9490   36.5170   35.1290 C.3   439  INH439      0.1220
     11  C11       55.4300   35.0920   34.9160 C.3   439  INH439      0.0660
     12  C12       55.4870   34.7220   33.4310 C.2   439  INH439     -0.0720
     13  C13       54.3640   34.1720   32.8220 C.2   439  INH439     -0.0230
     14  C14       54.2470   33.8090   31.4850 C.3   439  INH439      0.0330
     15  C15       55.6010   33.7080   30.7740 C.3   439  INH439     -0.0010
     16  C16       55.3770   33.6750   29.2590 C.3   439  INH439     -0.0010
     17  C17       54.5740   32.4930   28.7180 C.3   439  INH439      0.0060
     18  C18       54.8220   32.6220   27.2120 C.3   439  INH439      0.0060
     19  C19       56.0220   33.5670   27.0700 C.3   439  INH439     -0.0020
     20  C20       56.9030   33.2020   25.8680 C.3   439  INH439     -0.0140
     21  C21       57.1860   34.4280   24.9960 C.3   439  INH439      0.0100
     22  C22       56.2010   32.1070   25.0560 C.3   439  INH439      0.0050
     23  C23       55.8310   32.4990   23.6240 C.3   439  INH439      0.0030
     24  C24       55.2900   31.2670   22.8920 C.3   439  INH439      0.0370
     25  C25       55.6930   31.1930   21.4160 C.3   439  INH439      0.0510
     26  C27       54.6770   30.3330   20.6610 C.3   439  INH439      0.0450
     27  C26       57.0870   30.5830   21.2580 C.3   439  INH439      0.0450
     28  O2        55.6820   32.5200   20.8820 O.3   439  INH439     -0.3910
     29  H46       56.5620   32.8750   20.9030 H     439  INH439      0.2100
     30  O1        56.0100   36.8010   36.5300 O.3   439  INH439     -0.3950
     31  H17       55.3540   37.4520   36.7490 H     439  INH439      0.2100
@<TRIPOS>BOND
     1    26    25    1
     2    28    29    1
     3    28    25    1
     4    27    25    1
     5    25    24    1
     6    24    23    1
     7    23    22    1
     8    21    20    1
     9    22    20    1
    10    20    19    1
    11    19    18    1
    12    19     2    1
    13    18    17    1
    14     2     1    1
    15     2     3    1
    16     2    16    1
    17    17    16    1
    18     3     4    1
    19    16    15    1
    20     4     5    1
    21    15     5    1
    22    15    14    1
    23     5     6    1
    24    14    13    1
    25     6     8    1
    26     6     7    1
    27     6    12    1
    28    13    12    2
    29     8     9    1
    30    12    11    1
    31     9    10    1
    32    11    10    1
    33    10    30    1
    34    30    31    1
