@<TRIPOS>MOLECULE
./ligand/2nmx_lig.pdb
 29 29 0 0 0
SMALL
GASTEIGER

@<TRIPOS>ATOM
      1  C1       -17.1190   -0.3350  -19.2180 C.ar  262  INH262      0.1066
      2  C2       -17.2670   -1.1950  -18.1260 C.ar  262  INH262     -0.0350
      3  C3       -17.8370   -0.6910  -16.9680 C.ar  262  INH262     -0.0567
      4  C4       -18.2630    0.6470  -16.8510 C.ar  262  INH262     -0.0458
      5  C5       -18.1000    1.4990  -17.9670 C.ar  262  INH262     -0.0567
      6  C6       -17.5280    1.0280  -19.1630 C.ar  262  INH262     -0.0350
      7  S1       -16.3990   -0.9430  -20.7100 S.O2  262  INH262      0.0723
      8  O1       -16.0470    0.1710  -21.5580 O.2   262  INH262     -0.1519
      9  O2       -17.3810   -1.8790  -21.2420 O.2   262  INH262     -0.1519
     10  N1       -15.0290   -1.7550  -20.3310 N.3   262  INH262     -0.1053
     11  C7       -18.8660    1.1360  -15.5610 C.3   262  INH262     -0.0121
     12  C8       -17.7940    1.6190  -14.5950 C.3   262  INH262      0.0156
     13  N2       -18.4260    2.0720  -13.3570 N.am  262  INH262     -0.3152
     14  C9       -18.7940    3.3740  -13.1580 C.2   262  INH262      0.2099
     15  C10      -19.4340    3.6210  -11.8050 C.3   262  INH262      0.0121
     16  O3       -18.6280    4.2840  -13.9800 O.2   262  INH262     -0.2761
     17  H1       -16.9440   -2.2280  -18.1840 H     262  INH262      0.0637
     18  H2       -17.9600   -1.3520  -16.1180 H     262  INH262      0.0621
     19  H3       -18.4210    2.5320  -17.9000 H     262  INH262      0.0621
     20  H4       -17.4020    1.6830  -20.0170 H     262  INH262      0.0637
     21  H5       -14.4800   -2.1740  -21.0540 H     262  INH262      0.1694
     22  H6       -19.4250    0.3130  -15.0920 H     262  INH262      0.0328
     23  H7       -19.5520    1.9680  -15.7790 H     262  INH262      0.0328
     24  H8       -17.2380    2.4520  -15.0500 H     262  INH262      0.0465
     25  H9       -17.1010    0.7940  -14.3730 H     262  INH262      0.0465
     26  H10      -18.5950    1.4060  -12.6300 H     262  INH262      0.1487
     27  H11      -19.7030    4.6840  -11.7150 H     262  INH262      0.0322
     28  H12      -18.7230    3.3540  -11.0090 H     262  INH262      0.0322
     29  H13      -20.3400    3.0040  -11.7100 H     262  INH262      0.0322
@<TRIPOS>BOND
     1     1     7    1
     2     1     6   ar
     3     1     2   ar
     4     2    17    1
     5     2     3   ar
     6     3    18    1
     7     3     4   ar
     8     4    11    1
     9     4     5   ar
    10     5    19    1
    11     5     6   ar
    12     6    20    1
    13     7    10    1
    14     7     9    2
    15     7     8    2
    16    10    21    1
    17    11    23    1
    18    11    22    1
    19    11    12    1
    20    12    25    1
    21    12    24    1
    22    12    13    1
    23    13    26    1
    24    13    14   am
    25    14    16    2
    26    14    15    1
    27    15    29    1
    28    15    28    1
    29    15    27    1
