@<TRIPOS>MOLECULE
/tmp/ewbell/vina_2nmx_2nmx_lig/vina/vina5.pdbqt
 19 19 0 0 0
SMALL
GASTEIGER

@<TRIPOS>ATOM
      1  C1        -4.4980   -7.8710  -10.3800 C.ar  262  INH262      0.0740
      2  C2        -5.7790   -7.7940  -10.9340 C.ar  262  INH262      0.0250
      3  C3        -6.8430   -7.5220  -10.0890 C.ar  262  INH262      0.0090
      4  C4        -6.6810   -7.3270   -8.7020 C.ar  262  INH262     -0.0570
      5  C5        -5.3760   -7.4130   -8.1650 C.ar  262  INH262      0.0090
      6  C6        -4.2680   -7.6850   -8.9870 C.ar  262  INH262      0.0250
      7  C7        -7.8790   -7.0440   -7.8360 C.3   262  INH262      0.0580
      8  C8        -8.5030   -5.6980   -8.1750 C.3   262  INH262      0.1270
      9  N2        -9.8620   -5.9050   -8.6710 N.am  262  INH262     -0.3610
     10  H10      -10.0770   -6.7580   -9.1480 H     262  INH262      0.1620
     11  C9       -10.8510   -4.9740   -8.5060 C.2   262  INH262      0.2130
     12  O3       -10.7020   -3.8870   -7.9330 O.2   262  INH262     -0.2740
     13  C10      -12.1840   -5.3980   -9.0910 C.3   262  INH262      0.1170
     14  S1        -3.1200   -8.2140  -11.4270 S.O2  262  INH262      0.2390
     15  O2        -3.2920   -7.3280  -12.5710 O.2   262  INH262     -0.2060
     16  O1        -1.8990   -8.0600  -10.6730 O.2   262  INH262     -0.2060
     17  N1        -3.2240   -9.7690  -11.9280 N.3   262  INH262     -0.2250
     18  H5        -2.8580  -10.0330  -12.8220 H     262  INH262      0.1360
     19  H         -4.2150  -10.0120  -11.9330 H     262  INH262      0.1360
@<TRIPOS>BOND
     1    18    17    1
     2    15    14    2
     3    19    17    1
     4    17    14    1
     5    14    16    2
     6    14     1    1
     7     2     1   ar
     8     2     3   ar
     9     1     6   ar
    10     3     4   ar
    11    10     9    1
    12    13    11    1
    13     6     5   ar
    14     4     5   ar
    15     4     7    1
    16     9    11   am
    17     9     8    1
    18    11    12    2
    19     8     7    1
