@<TRIPOS>MOLECULE
/tmp/ewbell/vina_2nmx_2nmx_lig/vina/vina3.pdbqt
 19 19 0 0 0
SMALL
GASTEIGER

@<TRIPOS>ATOM
      1  C1       -17.2230    0.0360  -19.3160 C.ar  262  INH262      0.0740
      2  C2       -17.8870    1.2080  -19.6890 C.ar  262  INH262      0.0250
      3  C3       -18.6550    1.8570  -18.7350 C.ar  262  INH262      0.0090
      4  C4       -18.7930    1.3790  -17.4170 C.ar  262  INH262     -0.0570
      5  C5       -18.1150    0.1900  -17.0640 C.ar  262  INH262      0.0090
      6  C6       -17.3230   -0.5000  -18.0010 C.ar  262  INH262      0.0250
      7  C7       -19.6510    2.1260  -16.4300 C.3   262  INH262      0.0580
      8  C8       -19.4210    1.6310  -15.0100 C.3   262  INH262      0.1270
      9  N2       -19.6880    2.7170  -14.0690 N.am  262  INH262     -0.3610
     10  H10      -20.6320    2.8880  -13.7850 H     262  INH262      0.1620
     11  C9       -18.6930    3.5080  -13.5640 C.2   262  INH262      0.2130
     12  O3       -17.4930    3.3900  -13.8420 O.2   262  INH262     -0.2740
     13  C10      -19.1940    4.5670  -12.6000 C.3   262  INH262      0.1170
     14  S1       -16.2340   -0.8160  -20.5040 S.O2  262  INH262      0.2390
     15  O2       -15.7920    0.2180  -21.4300 O.2   262  INH262     -0.2060
     16  O1       -15.1980   -1.5530  -19.8210 O.2   262  INH262     -0.2060
     17  N1       -17.1870   -1.8830  -21.3000 N.3   262  INH262     -0.2250
     18  H5       -17.0570   -2.8660  -21.1660 H     262  INH262      0.1360
     19  H        -17.0630   -1.7030  -22.2960 H     262  INH262      0.1360
@<TRIPOS>BOND
     1    19    17    1
     2    15    14    2
     3    17    18    1
     4    17    14    1
     5    14    16    2
     6    14     1    1
     7     2     1   ar
     8     2     3   ar
     9     1     6   ar
    10     3     4   ar
    11     6     5   ar
    12     4     5   ar
    13     4     7    1
    14     7     8    1
    15     8     9    1
    16     9    10    1
    17     9    11   am
    18    12    11    2
    19    11    13    1
