@<TRIPOS>MOLECULE
/tmp/ewbell/vina_2nmx_2nmx_lig/vina/vina4.pdbqt
 19 19 0 0 0
SMALL
GASTEIGER

@<TRIPOS>ATOM
      1  C1        -5.0010   -7.4080  -10.5630 C.ar  262  INH262      0.0740
      2  C2        -6.1030   -7.0190  -11.3300 C.ar  262  INH262      0.0250
      3  C3        -7.2110   -6.5080  -10.6720 C.ar  262  INH262      0.0090
      4  C4        -7.2670   -6.3730   -9.2710 C.ar  262  INH262     -0.0570
      5  C5        -6.1420   -6.7760   -8.5160 C.ar  262  INH262      0.0090
      6  C6        -4.9960   -7.2990   -9.1430 C.ar  262  INH262      0.0250
      7  C7        -8.5040   -5.8190   -8.6160 C.3   262  INH262      0.0580
      8  C8        -8.3400   -5.7300   -7.1060 C.3   262  INH262      0.1270
      9  N2        -9.4340   -6.4510   -6.4560 N.am  262  INH262     -0.3610
     10  H10      -10.1960   -5.9270   -6.0740 H     262  INH262      0.1620
     11  C9        -9.4500   -7.8140   -6.3490 C.2   262  INH262      0.2130
     12  O3        -8.5650   -8.5630   -6.7820 O.2   262  INH262     -0.2740
     13  C10      -10.6820   -8.3500   -5.6450 C.3   262  INH262      0.1170
     14  S1        -3.5720   -8.0620  -11.3670 S.O2  262  INH262      0.2390
     15  O2        -3.2910   -7.1240  -12.4460 O.2   262  INH262     -0.2060
     16  O1        -2.5250   -8.2540  -10.3930 O.2   262  INH262     -0.2060
     17  N1        -3.9580   -9.5190  -12.0050 N.3   262  INH262     -0.2250
     18  H5        -3.3220   -9.9780  -12.6260 H     262  INH262      0.1360
     19  H         -4.8310   -9.3950  -12.5170 H     262  INH262      0.1360
@<TRIPOS>BOND
     1    18    17    1
     2    19    17    1
     3    15    14    2
     4    17    14    1
     5    14     1    1
     6    14    16    2
     7     2     3   ar
     8     2     1   ar
     9     3     4   ar
    10     1     6   ar
    11     4     7    1
    12     4     5   ar
    13     6     5   ar
    14     7     8    1
    15     8     9    1
    16    12    11    2
    17     9    11   am
    18     9    10    1
    19    11    13    1
