@<TRIPOS>MOLECULE
/tmp/ewbell/vina_2nmx_2nmx_lig/vina/vina1.pdbqt
 19 19 0 0 0
SMALL
GASTEIGER

@<TRIPOS>ATOM
      1  C1       -17.2200    0.0410  -19.3240 C.ar  262  INH262      0.0740
      2  C2       -17.9010    1.2050  -19.6930 C.ar  262  INH262      0.0250
      3  C3       -18.6630    1.8500  -18.7320 C.ar  262  INH262      0.0090
      4  C4       -18.7790    1.3760  -17.4100 C.ar  262  INH262     -0.0570
      5  C5       -18.0840    0.1960  -17.0610 C.ar  262  INH262      0.0090
      6  C6       -17.2980   -0.4900  -18.0050 C.ar  262  INH262      0.0250
      7  C7       -19.6310    2.1190  -16.4150 C.3   262  INH262      0.0580
      8  C8       -21.1090    2.0060  -16.7580 C.3   262  INH262      0.1270
      9  N2       -21.6750    0.8370  -16.0870 N.am  262  INH262     -0.3610
     10  H10      -21.5120   -0.0690  -16.4780 H     262  INH262      0.1620
     11  C9       -22.4210    0.9390  -14.9450 C.2   262  INH262      0.2130
     12  O3       -22.6880    2.0040  -14.3740 O.2   262  INH262     -0.2740
     13  C10      -22.9020   -0.3980  -14.4160 C.3   262  INH262      0.1170
     14  S1       -16.2390   -0.8060  -20.5210 S.O2  262  INH262      0.2390
     15  O2       -15.8010    0.2320  -21.4450 O.2   262  INH262     -0.2060
     16  O1       -15.1990   -1.5460  -19.8460 O.2   262  INH262     -0.2060
     17  N1       -17.1960   -1.8700  -21.3170 N.3   262  INH262     -0.2250
     18  H5       -16.8240   -2.7480  -21.6180 H     262  INH262      0.1360
     19  H        -17.5370   -1.3920  -22.1510 H     262  INH262      0.1360
@<TRIPOS>BOND
     1    19    17    1
     2    18    17    1
     3    15    14    2
     4    17    14    1
     5    14    16    2
     6    14     1    1
     7     2     1   ar
     8     2     3   ar
     9     1     6   ar
    10     3     4   ar
    11     6     5   ar
    12     4     5   ar
    13     4     7    1
    14     8     7    1
    15     8     9    1
    16    10     9    1
    17     9    11   am
    18    11    13    1
    19    11    12    2
