@<TRIPOS>MOLECULE
/tmp/ewbell/vina_2nmx_2nmx_lig/vina/vina2.pdbqt
 19 19 0 0 0
SMALL
GASTEIGER

@<TRIPOS>ATOM
      1  C1        -7.0470  -11.7340  -24.4570 C.ar  262  INH262      0.0740
      2  C2        -7.0310  -11.1420  -23.1910 C.ar  262  INH262      0.0250
      3  C3        -6.5790  -11.8980  -22.1210 C.ar  262  INH262      0.0090
      4  C4        -6.1450  -13.2310  -22.2620 C.ar  262  INH262     -0.0570
      5  C5        -6.1740  -13.8090  -23.5510 C.ar  262  INH262      0.0090
      6  C6        -6.6240  -13.0780  -24.6650 C.ar  262  INH262      0.0250
      7  C7        -5.6750  -14.0010  -21.0570 C.3   262  INH262      0.0580
      8  C8        -5.0390  -13.0830  -20.0240 C.3   262  INH262      0.1270
      9  N2        -5.9800  -12.8600  -18.9280 N.am  262  INH262     -0.3610
     10  H10       -6.5230  -13.6320  -18.5950 H     262  INH262      0.1620
     11  C9        -6.1430  -11.6350  -18.3420 C.2   262  INH262      0.2130
     12  O3        -5.5280  -10.6120  -18.6690 O.2   262  INH262     -0.2740
     13  C10       -7.1650  -11.6340  -17.2210 C.3   262  INH262      0.1170
     14  S1        -7.6150  -10.8010  -25.8440 S.O2  262  INH262      0.2390
     15  O2        -6.4020  -10.2880  -26.4680 O.2   262  INH262     -0.2060
     16  O1        -8.4570  -11.6360  -26.6670 O.2   262  INH262     -0.2060
     17  N1        -8.5110   -9.5480  -25.2920 N.3   262  INH262     -0.2250
     18  H5        -8.8060   -8.8280  -25.9230 H     262  INH262      0.1360
     19  H         -7.9650   -9.0930  -24.5620 H     262  INH262      0.1360
@<TRIPOS>BOND
     1    16    14    2
     2    15    14    2
     3    18    17    1
     4    14    17    1
     5    14     1    1
     6    17    19    1
     7     6     1   ar
     8     6     5   ar
     9     1     2   ar
    10     5     4   ar
    11     2     3   ar
    12     4     3   ar
    13     4     7    1
    14     7     8    1
    15     8     9    1
    16     9    10    1
    17     9    11   am
    18    12    11    2
    19    11    13    1
