@<TRIPOS>MOLECULE
./ligand/3fat_lig.pdb
 23 23 0 0 0
SMALL
GASTEIGER

@<TRIPOS>ATOM
      1  N1        11.8850   49.7560   20.0440 N.4   524  INH524      0.2291
      2  C1        12.3460   51.0730   20.5210 C.3   524  INH524      0.0828
      3  C2        13.2510   50.8730   21.7330 C.2   524  INH524      0.4029
      4  O1        13.5060   49.6970   22.0790 O.co2 524  INH524     -0.2400
      5  C3        11.1220   51.9450   20.8920 C.3   524  INH524      0.0345
      6  O2        13.7100   51.9090   22.2670 O.co2 524  INH524     -0.2400
      7  H1        11.2860   49.8800   19.2430 H     524  INH524      0.2003
      8  H2        11.3730   49.2930   20.7780 H     524  INH524      0.2003
      9  H3        12.6810   49.1950   19.7850 H     524  INH524      0.2003
     10  H4        12.9150   51.5720   19.7230 H     524  INH524      0.0973
     11  H5        11.4720   52.8960   21.3210 H     524  INH524      0.0377
     12  H6        10.5090   51.4120   21.6340 H     524  INH524      0.0377
     13  C4        10.2720   52.2340   19.6490 C.ar  524  INH524      0.0654
     14  C5        10.4890   53.2840   18.7620 C.ar  524  INH524      0.2837
     15  C6         9.1610   51.5580   19.1560 C.ar  524  INH524      0.1386
     16  C7         8.5040   50.3170   19.7590 C.3   524  INH524     -0.0034
     17  O3        11.4920   54.2050   18.8710 O.2   524  INH524     -0.2648
     18  N2         9.5960   53.2650   17.7810 N.ar  524  INH524     -0.1842
     19  O4         8.7320   52.1650   18.0160 O.2   524  INH524     -0.3815
     20  H7         7.6450   50.0190   19.1390 H     524  INH524      0.0309
     21  H8         8.1590   50.5430   20.7790 H     524  INH524      0.0309
     22  H9         9.2340   49.4950   19.7930 H     524  INH524      0.0309
     23  H10        9.5420   53.9080   17.0170 H     524  INH524      0.2107
@<TRIPOS>BOND
     1     1     8    1
     2     1     2    1
     3     1     9    1
     4     1     7    1
     5     2     3    1
     6     2     5    1
     7     2    10    1
     8     3     6   ar
     9     3     4   ar
    10     5    12    1
    11     5    11    1
    12     5    13    1
    13    13    15   ar
    14    13    14   ar
    15    14    18   ar
    16    14    17    2
    17    15    19   ar
    18    15    16    1
    19    16    22    1
    20    16    21    1
    21    16    20    1
    22    18    23    1
    23    18    19   ar
