@<TRIPOS>MOLECULE
/tmp/ewbell/vina_3fat_3fat_lig/vina/vina3.pdbqt
 19 19 0 0 0
SMALL
GASTEIGER

@<TRIPOS>ATOM
      1  C3        10.7270   52.0620   20.7680 C.3   524  INH524      0.0890
      2  C1        12.1300   51.4690   20.4940 C.3   524  INH524      0.2840
      3  N1        12.0280   50.0030   20.3660 N.4   524  INH524     -0.0650
      4  H2        11.3140   49.7740   19.6920 H     524  INH524      0.2750
      5  H3        11.7880   49.6040   21.2580 H     524  INH524      0.2750
      6  H1        12.9130   49.6310   20.0580 H     524  INH524      0.2750
      7  C2        13.0860   51.8020   21.6350 C.2   524  INH524      0.1710
      8  O2        12.8920   52.8860   22.2310 O.2   524  INH524     -0.6480
      9  O1        14.0180   50.9980   21.8650 O.3   524  INH524     -0.7750
     10  H         13.8320   50.0880   21.9850 H     524  INH524      0.1670
     11  C4         9.8520   51.9750   19.5120 C.2   524  INH524      0.0280
     12  C6         9.6970   52.8860   18.4720 C.3   524  INH524      0.0830
     13  O4         8.8070   52.3930   17.5690 O.3   524  INH524     -0.2400
     14  C7        10.3870   54.2430   18.3350 C.3   524  INH524      0.0790
     15  N2         8.3870   51.1260   18.0480 N.4   524  INH524     -0.2390
     16  C5         9.0240   50.9040   19.1910 C.2   524  INH524      0.1690
     17  H10        7.7320   50.5130   17.6070 H     524  INH524      0.1970
     18  O3         8.8700   49.7790   19.9510 O.2   524  INH524     -0.3440
     19  H3         8.0440   49.4710   20.3060 H     524  INH524      0.2190
@<TRIPOS>BOND
     1    13    15    1
     2    13    12    1
     3    17    15    1
     4    15    16    1
     5    14    12    1
     6    12    11    1
     7    16    11    2
     8    16    18    1
     9    11     1    1
    10     4     3    1
    11    18    19    1
    12     6     3    1
    13     3     2    1
    14     3     5    1
    15     2     1    1
    16     2     7    1
    17     7     9    1
    18     7     8    2
    19     9    10    1
