@<TRIPOS>MOLECULE
/tmp/ewbell/vina_3fat_3fat_lig/vina/vina1.pdbqt
 19 19 0 0 0
SMALL
GASTEIGER

@<TRIPOS>ATOM
      1  C3        11.0110   51.6110   20.8140 C.3   524  INH524      0.0890
      2  C1        12.3200   50.8330   20.5360 C.3   524  INH524      0.2840
      3  N1        11.9980   49.4390   20.1790 N.4   524  INH524     -0.0650
      4  H2        12.1150   49.3100   19.1860 H     524  INH524      0.2750
      5  H3        11.0450   49.2390   20.4340 H     524  INH524      0.2750
      6  H1        12.6170   48.8150   20.6730 H     524  INH524      0.2750
      7  C2        13.2180   50.8350   21.7690 C.2   524  INH524      0.1710
      8  O2        13.7150   51.9370   22.0990 O.2   524  INH524     -0.6480
      9  O1        13.4320   49.7380   22.3340 O.3   524  INH524     -0.7750
     10  H         14.2410   49.2880   22.1920 H     524  INH524      0.1670
     11  C4        10.7340   52.6150   19.6890 C.2   524  INH524      0.0280
     12  C6         9.6790   52.6660   18.7830 C.3   524  INH524      0.0830
     13  O4         9.8480   53.7310   17.9530 O.3   524  INH524     -0.2400
     14  C7         8.5060   51.6910   18.6910 C.3   524  INH524      0.0790
     15  N2        11.0460   54.3790   18.3480 N.4   524  INH524     -0.2390
     16  C5        11.5420   53.7030   19.3750 C.2   524  INH524      0.1690
     17  H10       11.4430   55.1950   17.9280 H     524  INH524      0.1970
     18  O3        12.7000   54.0300   20.0240 O.2   524  INH524     -0.3440
     19  H3        12.8220   54.8040   20.5620 H     524  INH524      0.2190
@<TRIPOS>BOND
     1    17    15    1
     2    13    15    1
     3    13    12    1
     4    15    16    1
     5    14    12    1
     6    12    11    1
     7     4     3    1
     8    16    11    2
     9    16    18    1
    10    11     1    1
    11    18    19    1
    12     3     5    1
    13     3     2    1
    14     3     6    1
    15     2     1    1
    16     2     7    1
    17     7     8    2
    18     7     9    1
    19    10     9    1
