@<TRIPOS>MOLECULE
/tmp/ewbell/vina_3fat_3fat_lig/vina/vina2.pdbqt
 19 19 0 0 0
SMALL
GASTEIGER

@<TRIPOS>ATOM
      1  C3        11.1630   51.6880   20.9120 C.3   524  INH524      0.0890
      2  C1        12.3970   50.8240   20.5570 C.3   524  INH524      0.2840
      3  N1        11.9500   49.5100   20.0580 N.4   524  INH524     -0.0650
      4  H2        12.4640   48.7810   20.5250 H     524  INH524      0.2750
      5  H3        12.1130   49.4540   19.0660 H     524  INH524      0.2750
      6  H1        10.9650   49.3980   20.2440 H     524  INH524      0.2750
      7  C2        13.2780   50.6150   21.7850 C.2   524  INH524      0.1710
      8  O2        13.9410   51.6050   22.1740 O.2   524  INH524     -0.6480
      9  O1        13.3120   49.4690   22.2870 O.3   524  INH524     -0.7750
     10  H         14.0430   48.9080   22.1220 H     524  INH524      0.1670
     11  C4        10.9920   52.8240   19.8970 C.2   524  INH524      0.0280
     12  C6        11.6360   54.0560   19.8250 C.3   524  INH524      0.0830
     13  O4        11.1600   54.7520   18.7570 O.3   524  INH524     -0.2400
     14  C7        12.7010   54.5870   20.7830 C.3   524  INH524      0.0790
     15  N2        10.1870   53.9340   18.1280 N.4   524  INH524     -0.2390
     16  C5        10.1140   52.8030   18.8180 C.2   524  INH524      0.1690
     17  H10        9.6550   54.1670   17.3140 H     524  INH524      0.1970
     18  O3         9.2770   51.7670   18.5110 O.2   524  INH524     -0.3440
     19  H3         8.3440   51.8520   18.3510 H     524  INH524      0.2190
@<TRIPOS>BOND
     1    17    15    1
     2    15    13    1
     3    15    16    1
     4    19    18    1
     5    18    16    1
     6    13    12    1
     7    16    11    2
     8     5     3    1
     9    12    11    1
    10    12    14    1
    11    11     1    1
    12     3     6    1
    13     3     4    1
    14     3     2    1
    15     2     1    1
    16     2     7    1
    17     7     8    2
    18     7     9    1
    19    10     9    1
