@<TRIPOS>MOLECULE
/tmp/ewbell/vina_3fat_3fat_lig/vina/vina4.pdbqt
 19 19 0 0 0
SMALL
GASTEIGER

@<TRIPOS>ATOM
      1  C3        10.7910   51.9470   19.7110 C.3   524  INH524      0.0890
      2  C1         9.5010   51.2120   20.1500 C.3   524  INH524      0.2840
      3  N1         9.5640   49.8050   19.7140 N.4   524  INH524     -0.0650
      4  H2         9.1570   49.2150   20.4220 H     524  INH524      0.2750
      5  H3        10.5250   49.5410   19.5680 H     524  INH524      0.2750
      6  H1         9.0520   49.6970   18.8520 H     524  INH524      0.2750
      7  C2         8.2720   51.8690   19.5310 C.2   524  INH524      0.1710
      8  O2         7.1580   51.4060   19.8700 O.2   524  INH524     -0.6480
      9  O1         8.4600   52.7860   18.6990 O.3   524  INH524     -0.7750
     10  H          7.8240   52.9500   18.0320 H     524  INH524      0.1670
     11  C4        11.9250   51.6830   20.7090 C.2   524  INH524      0.0280
     12  C6        12.5340   52.5490   21.6110 C.3   524  INH524      0.0830
     13  O4        13.5060   51.8820   22.2920 O.3   524  INH524     -0.2400
     14  C7        12.2040   54.0260   21.8250 C.3   524  INH524      0.0790
     15  N2        13.5100   50.5490   21.8090 N.4   524  INH524     -0.2390
     16  C5        12.5650   50.4600   20.8820 C.2   524  INH524      0.1690
     17  H10       14.1140   49.8120   22.1120 H     524  INH524      0.1970
     18  O3        12.2750   49.3200   20.1860 O.2   524  INH524     -0.3440
     19  H3        12.9180   48.7660   19.7590 H     524  INH524      0.2190
@<TRIPOS>BOND
     1    10     9    1
     2     9     7    1
     3     6     3    1
     4     7     8    2
     5     7     2    1
     6     5     3    1
     7     1     2    1
     8     1    11    1
     9     3     2    1
    10     3     4    1
    11    19    18    1
    12    18    16    1
    13    11    16    2
    14    11    12    1
    15    16    15    1
    16    12    14    1
    17    12    13    1
    18    15    17    1
    19    15    13    1
