@<TRIPOS>MOLECULE
/tmp/ewbell/vina_3fat_3fat_lig/vina/vina5.pdbqt
 19 19 0 0 0
SMALL
GASTEIGER

@<TRIPOS>ATOM
      1  C3        20.0270   41.9970   12.2370 C.3   524  INH524      0.0890
      2  C1        18.5270   42.1280   11.8810 C.3   524  INH524      0.2840
      3  N1        17.9750   40.7950   11.5760 N.4   524  INH524     -0.0650
      4  H2        17.0940   40.8970   11.0970 H     524  INH524      0.2750
      5  H3        17.8340   40.2860   12.4330 H     524  INH524      0.2750
      6  H1        18.6200   40.2910   10.9870 H     524  INH524      0.2750
      7  C2        18.3400   43.0320   10.6660 C.2   524  INH524      0.1710
      8  O2        19.3790   43.3680   10.0520 O.2   524  INH524     -0.6480
      9  O1        17.1770   43.4090   10.3960 O.3   524  INH524     -0.7750
     10  H         16.7140   43.0230    9.6800 H     524  INH524      0.1670
     11  C4        20.4140   43.0160   13.3150 C.2   524  INH524      0.0280
     12  C6        20.1450   43.0120   14.6800 C.3   524  INH524      0.0830
     13  O4        20.6770   44.1280   15.2490 O.3   524  INH524     -0.2400
     14  C7        19.3640   41.9500   15.4530 C.3   524  INH524      0.0790
     15  N2        21.3090   44.8610   14.2120 N.4   524  INH524     -0.2390
     16  C5        21.1430   44.1790   13.0860 C.2   524  INH524      0.1690
     17  H10       21.7910   45.7310   14.3120 H     524  INH524      0.1970
     18  O3        21.6150   44.5800   11.8680 O.2   524  INH524     -0.3440
     19  H3        21.4790   45.4400   11.4880 H     524  INH524      0.2190
@<TRIPOS>BOND
     1    10     9    1
     2     8     7    2
     3     9     7    1
     4     7     2    1
     5     6     3    1
     6     4     3    1
     7    19    18    1
     8     3     2    1
     9     3     5    1
    10    18    16    1
    11     2     1    1
    12     1    11    1
    13    16    11    2
    14    16    15    1
    15    11    12    1
    16    15    17    1
    17    15    13    1
    18    12    13    1
    19    12    14    1
