@<TRIPOS>MOLECULE
./ligand/2oag_lig.pdb
 51 54 0 0 0
SMALL
GASTEIGER

@<TRIPOS>ATOM
      1  C1        29.1900    5.8310   62.5430 C.ar  1457  INH1457     0.1300
      2  C2        27.8630    6.3340   62.4280 C.ar  1457  INH1457     0.0119
      3  C3        27.6120    7.6900   62.8170 C.ar  1457  INH1457     0.1611
      4  C4        31.6200    6.0610   63.1460 C.3   1457  INH1457     0.0469
      5  C5        32.8450    6.8000   62.7240 C.3   1457  INH1457     0.0258
      6  C6        42.7350    4.6720   62.4390 C.3   1457  INH1457     0.0596
      7  C7        36.8490    6.6850   61.6130 C.ar  1457  INH1457     0.1187
      8  C8        36.0980    5.2160   63.7830 C.ar  1457  INH1457     0.0043
      9  C9        38.4860    4.3830   64.1240 C.ar  1457  INH1457     0.0023
     10  C10       39.1460    2.8410   65.9650 C.ar  1457  INH1457    -0.0593
     11  C11       40.8100    3.6080   64.3630 C.ar  1457  INH1457     0.0885
     12  C12       28.6710    8.5100   63.3150 C.ar  1457  INH1457     0.1588
     13  C13       29.9800    8.0000   63.4200 C.ar  1457  INH1457    -0.0172
     14  C14       30.2380    6.6510   63.0420 C.ar  1457  INH1457     0.0007
     15  C15       31.8210    5.5040   64.5730 C.3   1457  INH1457     0.0002
     16  F1        29.5310    4.5600   62.1920 F     1457  INH1457    -0.2051
     17  N1        33.8410    5.9990   63.4380 N.pl3 1457  INH1457    -0.3089
     18  C16       33.3070    5.1990   64.5720 C.3   1457  INH1457     0.0569
     19  F2        26.3540    8.1500   62.7030 F     1457  INH1457    -0.2024
     20  C17       35.1670    5.9850   63.0510 C.ar  1457  INH1457     0.1252
     21  F3        28.5710    9.7940   63.7170 F     1457  INH1457    -0.2025
     22  N2        35.5430    6.7410   61.9760 N.ar  1457  INH1457    -0.2207
     23  N3        37.7890    5.9640   62.2640 N.ar  1457  INH1457    -0.2353
     24  C18       37.4370    5.1860   63.3820 C.ar  1457  INH1457     0.0760
     25  N4        30.9090    4.3720   64.7820 N.4   1457  INH1457     0.2223
     26  C19       38.1700    3.5970   65.2790 C.ar  1457  INH1457    -0.0525
     27  C20       40.4720    2.8420   65.5060 C.ar  1457  INH1457    -0.0369
     28  C21       39.8280    4.3670   63.6860 C.ar  1457  INH1457    -0.0277
     29  S1        42.5030    3.5570   63.8240 S.O2  1457  INH1457    -0.0059
     30  O1        42.7410    2.2190   63.3630 O.2   1457  INH1457    -0.1696
     31  O2        43.2980    4.0420   64.9110 O.2   1457  INH1457    -0.1696
     32  H1        27.0620    5.7060   62.0550 H     1457  INH1457     0.0676
     33  H2        31.5900    5.1930   62.4710 H     1457  INH1457     0.0421
     34  H3        32.8350    7.8460   63.0630 H     1457  INH1457     0.0472
     35  H4        32.9930    6.7690   61.6340 H     1457  INH1457     0.0472
     36  H5        43.7840    4.6350   62.1110 H     1457  INH1457     0.0468
     37  H6        42.4830    5.6970   62.7470 H     1457  INH1457     0.0468
     38  H7        42.0800    4.3670   61.6090 H     1457  INH1457     0.0468
     39  H8        37.1590    7.2550   60.7450 H     1457  INH1457     0.1048
     40  H9        35.7760    4.6520   64.6510 H     1457  INH1457     0.0673
     41  H10       38.8720    2.2640   66.8410 H     1457  INH1457     0.0618
     42  H11       30.7840    8.6290   63.7850 H     1457  INH1457     0.0651
     43  H12       31.6010    6.2670   65.3340 H     1457  INH1457     0.0872
     44  H13       33.4850    4.1260   64.4110 H     1457  INH1457     0.0520
     45  H14       33.7700    5.5090   65.5210 H     1457  INH1457     0.0520
     46  H15       29.9560    4.7000   64.7620 H     1457  INH1457     0.1998
     47  H16       31.0990    3.9480   65.6760 H     1457  INH1457     0.1998
     48  H17       31.0450    3.6910   64.0510 H     1457  INH1457     0.1998
     49  H18       37.1470    3.5820   65.6390 H     1457  INH1457     0.0624
     50  H19       41.2300    2.2630   66.0210 H     1457  INH1457     0.0636
     51  H20       40.1110    4.9470   62.8150 H     1457  INH1457     0.0643
@<TRIPOS>BOND
     1    39     7    1
     2    38     6    1
     3     7    22   ar
     4     7    23   ar
     5    35     5    1
     6    22    20   ar
     7    32     2    1
     8    36     6    1
     9    16     1    1
    10    23    24   ar
    11     2     1   ar
    12     2     3   ar
    13     6    37    1
    14     6    29    1
    15    33     4    1
    16     1    14   ar
    17    19     3    1
    18     5    34    1
    19     5     4    1
    20     5    17    1
    21    51    28    1
    22     3    12   ar
    23    14     4    1
    24    14    13   ar
    25    20    17    1
    26    20     8   ar
    27     4    15    1
    28    12    13   ar
    29    12    21    1
    30    30    29    2
    31    24     8   ar
    32    24     9    1
    33    13    42    1
    34    17    18    1
    35    28     9   ar
    36    28    11   ar
    37     8    40    1
    38    29    11    1
    39    29    31    2
    40    48    25    1
    41     9    26   ar
    42    11    27   ar
    43    44    18    1
    44    18    15    1
    45    18    45    1
    46    15    25    1
    47    15    43    1
    48    46    25    1
    49    25    47    1
    50    26    49    1
    51    26    10   ar
    52    27    10   ar
    53    27    50    1
    54    10    41    1
