@<TRIPOS>MOLECULE
/tmp/ewbell/vina_2oag_2oag_lig/vina/vina5.pdbqt
 36 39 0 0 0
SMALL
GASTEIGER

@<TRIPOS>ATOM
      1  C4        31.6700    5.9190   62.6990 C.3   1457  INH1457     0.0720
      2  C5        32.7170    6.3320   61.7200 C.3   1457  INH1457     0.1360
      3  C15       32.3040    5.7750   64.1010 C.3   1457  INH1457     0.2110
      4  N1        33.8620    5.6440   62.3200 N.pl3 1457  INH1457    -0.3640
      5  C16       33.6970    5.2850   63.7540 C.3   1457  INH1457     0.1580
      6  C17       34.9880    5.3390   61.5810 C.2   1457  INH1457     0.1060
      7  C8        36.2620    5.4310   62.1840 C.2   1457  INH1457     0.0780
      8  C18       37.4020    5.1060   61.4420 C.3   1457  INH1457     0.0460
      9  N3        37.2090    4.7250   60.1020 N.3   1457  INH1457    -0.3520
     10  C7        35.9610    4.6670   59.5850 C.3   1457  INH1457     0.1820
     11  H3        38.0130    4.4930   59.5190 H     1457  INH1457     0.1660
     12  N2        34.8350    4.9780   60.2720 N.pl3 1457  INH1457    -0.3390
     13  H2        33.9150    4.9440   59.8320 H     1457  INH1457     0.1680
     14  C9        38.7970    5.1840   62.0290 C.ar  1457  INH1457    -0.0080
     15  C21       39.8200    5.9010   61.3700 C.ar  1457  INH1457     0.0370
     16  C11       41.1280    5.9660   61.9020 C.ar  1457  INH1457     0.0590
     17  C20       41.4480    5.3120   63.1180 C.ar  1457  INH1457     0.0230
     18  C10       40.4510    4.5950   63.7950 C.ar  1457  INH1457     0.0020
     19  C19       39.1480    4.5290   63.2530 C.ar  1457  INH1457     0.0140
     20  S1        42.4370    6.8480   61.0860 S.O2  1457  INH1457     0.1710
     21  C6        43.4560    7.6860   62.3010 C.3   1457  INH1457     0.1670
     22  O1        41.8060    7.8460   60.2710 O.2   1457  INH1457    -0.2230
     23  O2        43.2540    5.8690   60.4350 O.2   1457  INH1457    -0.2230
     24  C14       30.3510    6.6350   62.8310 C.ar  1457  INH1457    -0.0090
     25  C1        29.1910    6.0150   62.2940 C.ar  1457  INH1457     0.1260
     26  F1        29.3730    4.8060   61.6930 F     1457  INH1457    -0.2050
     27  C2        27.9170    6.6430   62.3940 C.ar  1457  INH1457     0.0880
     28  C3        27.8350    7.9200   63.0390 C.ar  1457  INH1457     0.1570
     29  F2        26.6260    8.5000   63.1260 F     1457  INH1457    -0.2030
     30  C12       29.0070    8.5400   63.5740 C.ar  1457  INH1457     0.1550
     31  C13       30.2610    7.9080   63.4640 C.ar  1457  INH1457     0.0560
     32  F3        29.0690    9.7300   64.2040 F     1457  INH1457    -0.2030
     33  N4        31.4700    4.8860   64.9190 N.4   1457  INH1457    -0.0730
     34  H17       32.0560    4.3600   65.5490 H     1457  INH1457     0.2740
     35  H15       30.9670    4.2500   64.3190 H     1457  INH1457     0.2740
     36  H16       30.8130    5.4350   65.4500 H     1457  INH1457     0.2740
@<TRIPOS>BOND
     1    11     9    1
     2    10     9    1
     3    10    12    1
     4    13    12    1
     5     9     8    1
     6    22    20    2
     7    12     6    1
     8    23    20    2
     9    20    16    1
    10    20    21    1
    11    15    16   ar
    12    15    14   ar
    13     8    14    1
    14     8     7    1
    15     6     7    2
    16     6     4    1
    17    26    25    1
    18     2     4    1
    19     2     1    1
    20    16    17   ar
    21    14    19   ar
    22    25    27   ar
    23    25    24   ar
    24     4     5    1
    25    27    28   ar
    26     1    24    1
    27     1     3    1
    28    24    31   ar
    29    28    29    1
    30    28    30   ar
    31    17    18   ar
    32    19    18   ar
    33    31    30   ar
    34    30    32    1
    35     5     3    1
    36     3    33    1
    37    35    33    1
    38    33    36    1
    39    33    34    1
