@<TRIPOS>MOLECULE
/tmp/ewbell/vina_2oag_2oag_lig/vina/vina4.pdbqt
 36 39 0 0 0
SMALL
GASTEIGER

@<TRIPOS>ATOM
      1  C4        31.8400    6.3470   62.9640 C.3   1457  INH1457     0.0720
      2  C5        32.9740    7.0830   62.3330 C.3   1457  INH1457     0.1360
      3  C15       32.2500    5.8900   64.3820 C.3   1457  INH1457     0.2110
      4  N1        34.0810    6.3520   62.9510 N.pl3 1457  INH1457    -0.3640
      5  C16       33.7300    5.6170   64.1950 C.3   1457  INH1457     0.1580
      6  C17       35.3420    6.3400   62.3870 C.2   1457  INH1457     0.1060
      7  C8        35.6280    7.1990   61.3030 C.2   1457  INH1457     0.0780
      8  C18       36.9090    7.2020   60.7430 C.3   1457  INH1457     0.0460
      9  N3        37.8490    6.3090   61.2880 N.3   1457  INH1457    -0.3520
     10  C7        37.5070    5.5070   62.3210 C.3   1457  INH1457     0.1820
     11  H3        38.7920    6.2660   60.9020 H     1457  INH1457     0.1660
     12  N2        36.2750    5.4740   62.8860 N.pl3 1457  INH1457    -0.3390
     13  H2        36.0540    4.8330   63.6480 H     1457  INH1457     0.1680
     14  C9        37.2800    8.0980   59.5780 C.ar  1457  INH1457    -0.0080
     15  C21       36.3400    8.4000   58.5700 C.ar  1457  INH1457     0.0370
     16  C11       36.6830    9.2210   57.4710 C.ar  1457  INH1457     0.0590
     17  C20       37.9850    9.7680   57.3550 C.ar  1457  INH1457     0.0230
     18  C10       38.9390    9.4860   58.3440 C.ar  1457  INH1457     0.0020
     19  C19       38.5900    8.6590   59.4350 C.ar  1457  INH1457     0.0140
     20  S1        35.5240    9.6050   56.1800 S.O2  1457  INH1457     0.1710
     21  C6        33.9450    8.8300   56.5290 C.3   1457  INH1457     0.1670
     22  O1        36.0490    9.0240   54.9780 O.2   1457  INH1457    -0.2230
     23  O2        35.3270   11.0240   56.2080 O.2   1457  INH1457    -0.2230
     24  C14       30.4400    6.9000   63.0140 C.ar  1457  INH1457    -0.0090
     25  C1        29.4210    6.2230   62.2920 C.ar  1457  INH1457     0.1260
     26  F1        29.8040    5.1140   61.6000 F     1457  INH1457    -0.2050
     27  C2        28.0780    6.6970   62.3080 C.ar  1457  INH1457     0.0880
     28  C3        27.7820    7.8790   63.0610 C.ar  1457  INH1457     0.1570
     29  F2        26.5100    8.3140   63.0670 F     1457  INH1457    -0.2030
     30  C12       28.8120    8.5570   63.7830 C.ar  1457  INH1457     0.1550
     31  C13       30.1360    8.0790   63.7550 C.ar  1457  INH1457     0.0560
     32  F3        28.6690    9.6720   64.5300 F     1457  INH1457    -0.2030
     33  N4        31.4090    4.7550   64.7840 N.4   1457  INH1457    -0.0730
     34  H17       31.9000    3.8920   64.6060 H     1457  INH1457     0.2740
     35  H15       30.5510    4.7680   64.2540 H     1457  INH1457     0.2740
     36  H16       31.1980    4.8250   65.7660 H     1457  INH1457     0.2740
@<TRIPOS>BOND
     1    22    20    2
     2    20    23    2
     3    20    21    1
     4    20    16    1
     5    17    16   ar
     6    17    18   ar
     7    16    15   ar
     8    18    19   ar
     9    15    14   ar
    10    19    14   ar
    11    14     8    1
    12     8     9    1
    13     8     7    1
    14    11     9    1
    15     9    10    1
    16     7     6    2
    17    26    25    1
    18    25    27   ar
    19    25    24   ar
    20    27    28   ar
    21    10    12    1
    22     2     4    1
    23     2     1    1
    24     6    12    1
    25     6     4    1
    26    12    13    1
    27     4     5    1
    28     1    24    1
    29     1     3    1
    30    24    31   ar
    31    28    29    1
    32    28    30   ar
    33    31    30   ar
    34    30    32    1
    35     5     3    1
    36    35    33    1
    37     3    33    1
    38    34    33    1
    39    33    36    1
