@<TRIPOS>MOLECULE
/tmp/ewbell/vina_2oag_2oag_lig/vina/vina2.pdbqt
 36 39 0 0 0
SMALL
GASTEIGER

@<TRIPOS>ATOM
      1  C4        31.7420    6.2750   63.1140 C.3   1457  INH1457     0.0720
      2  C5        32.9650    6.9620   62.6070 C.3   1457  INH1457     0.1360
      3  C15       31.9980    5.7600   64.5480 C.3   1457  INH1457     0.2110
      4  N1        33.9720    6.1550   63.2990 N.pl3 1457  INH1457    -0.3640
      5  C16       33.4730    5.4100   64.4850 C.3   1457  INH1457     0.1580
      6  C17       35.2760    6.0880   62.8470 C.2   1457  INH1457     0.1060
      7  C8        36.2440    5.4050   63.6160 C.2   1457  INH1457     0.0780
      8  C18       37.5610    5.3210   63.1510 C.3   1457  INH1457     0.0460
      9  N3        37.8540    5.9590   61.9330 N.3   1457  INH1457    -0.3520
     10  C7        36.8800    6.6040   61.2510 C.3   1457  INH1457     0.1820
     11  H3        38.8040    5.9360   61.5620 H     1457  INH1457     0.1660
     12  N2        35.5950    6.7090   61.6720 N.pl3 1457  INH1457    -0.3390
     13  H2        34.8990    7.2280   61.1370 H     1457  INH1457     0.1680
     14  C9        38.6480    4.6050   63.9280 C.ar  1457  INH1457    -0.0080
     15  C21       39.9540    4.4890   63.4050 C.ar  1457  INH1457     0.0370
     16  C11       40.9690    3.8090   64.1160 C.ar  1457  INH1457     0.0590
     17  C20       40.7020    3.2250   65.3790 C.ar  1457  INH1457     0.0230
     18  C10       39.4130    3.3260   65.9240 C.ar  1457  INH1457     0.0020
     19  C19       38.4020    4.0020   65.2040 C.ar  1457  INH1457     0.0140
     20  S1        42.6180    3.6360   63.4760 S.O2  1457  INH1457     0.1710
     21  C6        43.3720    5.2520   63.2910 C.3   1457  INH1457     0.1670
     22  O1        42.4860    3.0540   62.1700 O.2   1457  INH1457    -0.2230
     23  O2        43.3700    2.9140   64.4570 O.2   1457  INH1457    -0.2230
     24  C14       30.3740    6.9030   63.0580 C.ar  1457  INH1457    -0.0090
     25  C1        29.3690    6.2630   62.2840 C.ar  1457  INH1457     0.1260
     26  F1        29.7350    5.1170   61.6450 F     1457  INH1457    -0.2050
     27  C2        28.0560    6.8080   62.1990 C.ar  1457  INH1457     0.0880
     28  C3        27.7770    8.0230   62.9040 C.ar  1457  INH1457     0.1570
     29  F2        26.5340    8.5260   62.8150 F     1457  INH1457    -0.2030
     30  C12       28.7930    8.6650   63.6780 C.ar  1457  INH1457     0.1550
     31  C13       30.0880    8.1150   63.7500 C.ar  1457  INH1457     0.0560
     32  F3        28.6630    9.8040   64.3890 F     1457  INH1457    -0.2030
     33  N4        31.0660    4.6640   64.8410 N.4   1457  INH1457    -0.0730
     34  H17       30.1210    5.0160   64.8410 H     1457  INH1457     0.2740
     35  H15       31.2790    4.2740   65.7460 H     1457  INH1457     0.2740
     36  H16       31.1570    3.9480   64.1380 H     1457  INH1457     0.2740
@<TRIPOS>BOND
     1    13    12    1
     2    10    12    1
     3    10     9    1
     4    11     9    1
     5    26    25    1
     6    12     6    1
     7     9     8    1
     8    22    20    2
     9    27    25   ar
    10    27    28   ar
    11    25    24   ar
    12     2     1    1
    13     2     4    1
    14    29    28    1
    15     6     4    1
    16     6     7    2
    17    28    30   ar
    18    24     1    1
    19    24    31   ar
    20     1     3    1
    21     8     7    1
    22     8    14    1
    23    21    20    1
    24     4     5    1
    25    15    14   ar
    26    15    16   ar
    27    20    16    1
    28    20    23    2
    29    30    31   ar
    30    30    32    1
    31    14    19   ar
    32    16    17   ar
    33    36    33    1
    34     5     3    1
    35     3    33    1
    36    33    34    1
    37    33    35    1
    38    19    18   ar
    39    17    18   ar
