@<TRIPOS>MOLECULE
/tmp/ewbell/vina_2oag_2oag_lig/vina/vina3.pdbqt
 36 39 0 0 0
SMALL
GASTEIGER

@<TRIPOS>ATOM
      1  C4        31.8060    6.3470   62.9930 C.3   1457  INH1457     0.0720
      2  C5        32.9410    7.0870   62.3690 C.3   1457  INH1457     0.1360
      3  C15       32.2140    5.8770   64.4070 C.3   1457  INH1457     0.2110
      4  N1        34.0470    6.3510   62.9830 N.pl3 1457  INH1457    -0.3640
      5  C16       33.6950    5.6060   64.2210 C.3   1457  INH1457     0.1580
      6  C17       35.3090    6.3440   62.4210 C.2   1457  INH1457     0.1060
      7  C8        35.5990    7.2190   61.3510 C.2   1457  INH1457     0.0780
      8  C18       36.8810    7.2260   60.7930 C.3   1457  INH1457     0.0460
      9  N3        37.8180    6.3220   61.3250 N.3   1457  INH1457    -0.3520
     10  C7        37.4710    5.5050   62.3450 C.3   1457  INH1457     0.1820
     11  H3        38.7610    6.2820   60.9390 H     1457  INH1457     0.1660
     12  N2        36.2380    5.4680   62.9080 N.pl3 1457  INH1457    -0.3390
     13  H2        36.0150    4.8160   63.6600 H     1457  INH1457     0.1680
     14  C9        37.2570    8.1380   59.6420 C.ar  1457  INH1457    -0.0080
     15  C21       38.4160    7.8940   58.8740 C.ar  1457  INH1457     0.0370
     16  C11       38.7820    8.7500   57.8090 C.ar  1457  INH1457     0.0590
     17  C20       37.9900    9.8780   57.4820 C.ar  1457  INH1457     0.0230
     18  C10       36.8310   10.1440   58.2280 C.ar  1457  INH1457     0.0020
     19  C19       36.4760    9.2880   59.2940 C.ar  1457  INH1457     0.0140
     20  S1        40.2420    8.4740   56.8350 S.O2  1457  INH1457     0.1710
     21  C6        41.3480    7.3580   57.6990 C.3   1457  INH1457     0.1670
     22  O1        40.8970    9.7460   56.7180 O.2   1457  INH1457    -0.2230
     23  O2        39.8210    7.8240   55.6310 O.2   1457  INH1457    -0.2230
     24  C14       30.4060    6.8990   63.0460 C.ar  1457  INH1457    -0.0090
     25  C1        29.3850    6.2200   62.3270 C.ar  1457  INH1457     0.1260
     26  F1        29.7670    5.1100   61.6370 F     1457  INH1457    -0.2050
     27  C2        28.0420    6.6930   62.3460 C.ar  1457  INH1457     0.0880
     28  C3        27.7470    7.8770   63.0980 C.ar  1457  INH1457     0.1570
     29  F2        26.4760    8.3110   63.1060 F     1457  INH1457    -0.2030
     30  C12       28.7800    8.5570   63.8160 C.ar  1457  INH1457     0.1550
     31  C13       30.1040    8.0790   63.7850 C.ar  1457  INH1457     0.0560
     32  F3        28.6380    9.6730   64.5610 F     1457  INH1457    -0.2030
     33  N4        31.3720    4.7390   64.7990 N.4   1457  INH1457    -0.0730
     34  H17       31.6910    4.3730   65.6830 H     1457  INH1457     0.2740
     35  H15       31.4330    4.0190   64.0960 H     1457  INH1457     0.2740
     36  H16       30.4160    5.0430   64.8860 H     1457  INH1457     0.2740
@<TRIPOS>BOND
     1    23    20    2
     2    22    20    2
     3    20    21    1
     4    20    16    1
     5    17    16   ar
     6    17    18   ar
     7    16    15   ar
     8    18    19   ar
     9    15    14   ar
    10    19    14   ar
    11    14     8    1
    12     8     9    1
    13     8     7    1
    14    11     9    1
    15     9    10    1
    16     7     6    2
    17    26    25    1
    18    25    27   ar
    19    25    24   ar
    20    10    12    1
    21    27    28   ar
    22     2     4    1
    23     2     1    1
    24     6    12    1
    25     6     4    1
    26    12    13    1
    27     4     5    1
    28     1    24    1
    29     1     3    1
    30    24    31   ar
    31    28    29    1
    32    28    30   ar
    33    31    30   ar
    34    30    32    1
    35    35    33    1
    36     5     3    1
    37     3    33    1
    38    33    36    1
    39    33    34    1
