@<TRIPOS>MOLECULE
/tmp/ewbell/vina_2oag_2oag_lig/vina/vina1.pdbqt
 36 39 0 0 0
SMALL
GASTEIGER

@<TRIPOS>ATOM
      1  C4        31.7030    6.4800   62.8670 C.3   1457  INH1457     0.0720
      2  C5        32.7750    7.2640   62.1870 C.3   1457  INH1457     0.1360
      3  C15       32.2060    6.0150   64.2520 C.3   1457  INH1457     0.2110
      4  N1        33.9390    6.5630   62.7310 N.pl3 1457  INH1457    -0.3640
      5  C16       33.6830    5.7970   63.9800 C.3   1457  INH1457     0.1580
      6  C17       35.1660    6.6040   62.0990 C.2   1457  INH1457     0.1060
      7  C8        36.2710    5.9440   62.6800 C.2   1457  INH1457     0.0780
      8  C18       37.5100    5.9700   62.0310 C.3   1457  INH1457     0.0460
      9  N3        37.5890    6.6910   60.8260 N.3   1457  INH1457    -0.3520
     10  C7        36.4930    7.3080   60.3300 C.3   1457  INH1457     0.1820
     11  H3        38.4760    6.7490   60.3260 H     1457  INH1457     0.1660
     12  N2        35.2780    7.3080   60.9320 N.pl3 1457  INH1457    -0.3390
     13  H2        34.4850    7.8090   60.5330 H     1457  INH1457     0.1680
     14  C9        38.7350    5.2840   62.6010 C.ar  1457  INH1457    -0.0080
     15  C21       38.6480    4.5080   63.7770 C.ar  1457  INH1457     0.0370
     16  C11       39.7900    3.8780   64.3240 C.ar  1457  INH1457     0.0590
     17  C20       41.0560    4.0080   63.7030 C.ar  1457  INH1457     0.0230
     18  C10       41.1720    4.7720   62.5320 C.ar  1457  INH1457     0.0020
     19  C19       40.0280    5.4040   61.9950 C.ar  1457  INH1457     0.0140
     20  S1        39.7120    2.9070   65.8110 S.O2  1457  INH1457     0.1710
     21  C6        39.7350    3.9850   67.2430 C.3   1457  INH1457     0.1670
     22  O1        40.9040    2.1080   65.8360 O.2   1457  INH1457    -0.2230
     23  O2        38.4510    2.2290   65.7970 O.2   1457  INH1457    -0.2230
     24  C14       30.2900    6.9820   63.0040 C.ar  1457  INH1457    -0.0090
     25  C1        29.2590    6.2950   62.3080 C.ar  1457  INH1457     0.1260
     26  F1        29.6440    5.2240   61.5600 F     1457  INH1457    -0.2050
     27  C2        27.9040    6.7220   62.4050 C.ar  1457  INH1457     0.0880
     28  C3        27.6070    7.8680   63.2130 C.ar  1457  INH1457     0.1570
     29  F2        26.3240    8.2580   63.2950 F     1457  INH1457    -0.2030
     30  C12       28.6490    8.5570   63.9080 C.ar  1457  INH1457     0.1550
     31  C13       29.9850    8.1250   63.7990 C.ar  1457  INH1457     0.0560
     32  F3        28.5070    9.6400   64.6990 F     1457  INH1457    -0.2030
     33  N4        31.4280    4.8450   64.6800 N.4   1457  INH1457    -0.0730
     34  H17       31.2280    4.9170   65.6660 H     1457  INH1457     0.2740
     35  H15       31.9590    4.0060   64.5050 H     1457  INH1457     0.2740
     36  H16       30.5640    4.8090   64.1640 H     1457  INH1457     0.2740
@<TRIPOS>BOND
     1    11     9    1
     2    10     9    1
     3    10    12    1
     4    13    12    1
     5     9     8    1
     6    12     6    1
     7    26    25    1
     8    19    18   ar
     9    19    14   ar
    10     8    14    1
    11     8     7    1
    12     6     7    2
    13     6     4    1
    14     2     4    1
    15     2     1    1
    16    25    27   ar
    17    25    24   ar
    18    27    28   ar
    19    18    17   ar
    20    14    15   ar
    21     4     5    1
    22     1    24    1
    23     1     3    1
    24    24    31   ar
    25    28    29    1
    26    28    30   ar
    27    17    16   ar
    28    15    16   ar
    29    31    30   ar
    30    30    32    1
    31     5     3    1
    32    36    33    1
    33     3    33    1
    34    16    20    1
    35    35    33    1
    36    33    34    1
    37    23    20    2
    38    20    22    2
    39    20    21    1
