@<TRIPOS>MOLECULE
./ligand/1dy4_lig.pdb
 39 41 0 0 0
SMALL
GASTEIGER

@<TRIPOS>ATOM
      1  C1        24.3160   54.8910   90.5540 C.ar  438  INH438      0.1283
      2  C2        23.9770   54.1950   91.7520 C.ar  438  INH438     -0.0193
      3  C3        22.6480   53.7560   92.0320 C.ar  438  INH438     -0.0577
      4  C4        21.6110   54.0220   91.0850 C.ar  438  INH438     -0.0538
      5  C5        20.8780   54.9610   88.9690 C.ar  438  INH438     -0.0539
      6  C6        21.1500   55.6570   87.7500 C.ar  438  INH438     -0.0612
      7  C7        22.4810   56.0950   87.4710 C.ar  438  INH438     -0.0611
      8  C8        23.5190   55.8280   88.4210 C.ar  438  INH438     -0.0505
      9  C9        23.2560   55.1400   89.6330 C.ar  438  INH438      0.0238
     10  C10       21.9120   54.7070   89.8930 C.ar  438  INH438     -0.0144
     11  O1        25.5940   55.3310   90.2450 O.3   438  INH438     -0.4886
     12  C11       26.4520   55.8300   91.2610 C.3   438  INH438      0.1204
     13  C12       27.6980   56.4180   90.5970 C.3   438  INH438      0.1285
     14  O2        28.4170   55.3760   89.9660 O.3   438  INH438     -0.3831
     15  C13       27.3520   57.4830   89.5430 C.3   438  INH438     -0.0035
     16  N1        28.3890   58.4990   89.5320 N.4   438  INH438      0.2311
     17  C14       28.3430   59.3960   88.3940 C.3   438  INH438     -0.0222
     18  C15       29.2470   58.8190   87.2860 C.3   438  INH438     -0.0046
     19  C16       28.8230   60.8130   88.7670 C.3   438  INH438     -0.0046
     20  H1        24.7570   53.9920   92.4770 H     438  INH438      0.0654
     21  H2        22.4280   53.2270   92.9520 H     438  INH438      0.0619
     22  H3        20.5960   53.6970   91.2840 H     438  INH438      0.0624
     23  H4        19.8700   54.6260   89.1840 H     438  INH438      0.0624
     24  H5        20.3520   55.8510   87.0430 H     438  INH438      0.0618
     25  H6        22.7030   56.6230   86.5510 H     438  INH438      0.0618
     26  H7        24.5290   56.1590   88.2090 H     438  INH438      0.0625
     27  H8        26.7420   55.0120   91.9370 H     438  INH438      0.0725
     28  H9        25.9330   56.6120   91.8340 H     438  INH438      0.0725
     29  H10       28.3270   56.8790   91.3730 H     438  INH438      0.0681
     30  H11       29.1930   55.7330   89.5510 H     438  INH438      0.2102
     31  H12       26.3860   57.9460   89.7920 H     438  INH438      0.0841
     32  H13       27.2880   57.0120   88.5510 H     438  INH438      0.0841
     33  H14       29.2840   58.0350   89.5310 H     438  INH438      0.2017
     34  H15       28.2980   59.0500   90.3710 H     438  INH438      0.2017
     35  H16       27.3080   59.4580   88.0270 H     438  INH438      0.0850
     36  H17       28.9550   58.7790   86.2260 H     438  INH438      0.0322
     37  H18       30.0420   58.0820   87.4760 H     438  INH438      0.0322
     38  H19       29.4140   61.0340   89.6680 H     438  INH438      0.0322
     39  H20       28.3270   61.7310   88.4190 H     438  INH438      0.0322
@<TRIPOS>BOND
     1     1     9   ar
     2     1    11    1
     3     1     2   ar
     4     2    20    1
     5     2     3   ar
     6     3    21    1
     7     3     4   ar
     8     4    22    1
     9     4    10   ar
    10     5    23    1
    11     5    10   ar
    12     5     6   ar
    13     6    24    1
    14     6     7   ar
    15     7    25    1
    16     7     8   ar
    17     8    26    1
    18     8     9   ar
    19     9    10   ar
    20    11    12    1
    21    12    28    1
    22    12    27    1
    23    12    13    1
    24    13    29    1
    25    13    15    1
    26    13    14    1
    27    14    30    1
    28    15    32    1
    29    15    31    1
    30    15    16    1
    31    16    34    1
    32    16    33    1
    33    16    17    1
    34    17    35    1
    35    17    19    1
    36    17    18    1
    37    18    37    1
    38    18    36    1
    39    19    39    1
    40    19    38    1
