@<TRIPOS>MOLECULE
/tmp/ewbell/vina_1dy4_1dy4_lig/vina/vina1.pdbqt
 22 23 0 0 0
SMALL
GASTEIGER

@<TRIPOS>ATOM
      1  O1        25.5980   56.0880   90.4920 O.3   438  INH438     -0.3480
      2  C1        24.4200   55.4000   90.7400 C.ar  438  INH438      0.0800
      3  C9        23.3730   55.4470   89.7730 C.ar  438  INH438      0.0070
      4  C8        23.5480   56.1890   88.5770 C.ar  438  INH438      0.0150
      5  C10       22.1310   54.7540   89.9690 C.ar  438  INH438     -0.0230
      6  C7        22.5210   56.2590   87.5810 C.ar  438  INH438      0.0010
      7  C6        21.2920   55.5620   87.7970 C.ar  438  INH438      0.0010
      8  C5        21.1100   54.8110   89.0000 C.ar  438  INH438      0.0120
      9  C4        21.9200   54.0070   91.1440 C.ar  438  INH438      0.0120
     10  C3        22.9460   53.9380   92.1360 C.ar  438  INH438      0.0040
     11  C2        24.1720   54.6350   91.9190 C.ar  438  INH438      0.0370
     12  C11       26.6980   55.9820   91.3840 C.3   438  INH438      0.2090
     13  C12       27.9820   56.2770   90.6060 C.3   438  INH438      0.1680
     14  C13       27.7000   56.7700   89.1780 C.3   438  INH438      0.2660
     15  N1        27.8290   58.2150   89.1370 N.4   438  INH438     -0.0680
     16  H15       27.1170   58.6110   89.7280 H     438  INH438      0.2770
     17  H14       28.7390   58.4600   89.4970 H     438  INH438      0.2770
     18  C14       27.6940   58.7960   87.8150 C.3   438  INH438      0.1860
     19  C16       29.0610   58.9510   87.1190 C.3   438  INH438      0.0350
     20  C15       26.7860   57.8770   86.9730 C.3   438  INH438      0.0350
     21  O2        28.7550   55.0950   90.5300 O.3   438  INH438     -0.3920
     22  H11       29.6200   55.2580   90.8890 H     438  INH438      0.2100
@<TRIPOS>BOND
     1    20    18    1
     2    19    18    1
     3     6     7   ar
     4     6     4   ar
     5     7     8   ar
     6    18    15    1
     7     4     3   ar
     8     8     5   ar
     9    15    14    1
    10    15    17    1
    11    15    16    1
    12    14    13    1
    13     3     5   ar
    14     3     2   ar
    15     5     9   ar
    16     1     2    1
    17     1    12    1
    18    21    13    1
    19    21    22    1
    20    13    12    1
    21     2    11   ar
    22     9    10   ar
    23    11    10   ar
