@<TRIPOS>MOLECULE
/tmp/ewbell/vina_1dy4_1dy4_lig/vina/vina5.pdbqt
 22 23 0 0 0
SMALL
GASTEIGER

@<TRIPOS>ATOM
      1  O1        24.1150   58.7040   83.1160 O.3   438  INH438     -0.3480
      2  C1        24.8940   59.8480   83.0260 C.ar  438  INH438      0.0800
      3  C9        25.9380   60.0520   83.9770 C.ar  438  INH438      0.0070
      4  C8        26.1660   59.0910   84.9930 C.ar  438  INH438      0.0150
      5  C10       26.7800   61.2140   83.9350 C.ar  438  INH438     -0.0230
      6  C7        27.2050   59.2600   85.9650 C.ar  438  INH438      0.0010
      7  C6        28.0320   60.4240   85.9060 C.ar  438  INH438      0.0010
      8  C5        27.8070   61.3970   84.8820 C.ar  438  INH438      0.0120
      9  C4        26.5830   62.1910   82.9410 C.ar  438  INH438      0.0120
     10  C3        25.5460   62.0200   81.9720 C.ar  438  INH438      0.0040
     11  C2        24.7220   60.8570   82.0330 C.ar  438  INH438      0.0370
     12  C11       22.7700   58.7070   82.6590 C.3   438  INH438      0.2090
     13  C12       21.8760   58.1810   83.7820 C.3   438  INH438      0.1680
     14  C13       22.3540   56.8230   84.3240 C.3   438  INH438      0.2660
     15  N1        22.4950   56.9070   85.7660 N.4   438  INH438     -0.0680
     16  H15       22.2140   57.8300   86.0560 H     438  INH438      0.2770
     17  H14       21.8830   56.2230   86.1830 H     438  INH438      0.2770
     18  C14       23.8390   56.6690   86.2560 C.3   438  INH438      0.1860
     19  C16       23.8290   56.0160   87.6530 C.3   438  INH438      0.0350
     20  C15       24.5600   55.7410   85.2570 C.3   438  INH438      0.0350
     21  O2        20.5590   58.0300   83.2880 O.3   438  INH438     -0.3920
     22  H11       20.0230   57.5970   83.9420 H     438  INH438      0.2100
@<TRIPOS>BOND
     1    10    11   ar
     2    10     9   ar
     3    11     2   ar
     4    12     1    1
     5    12    13    1
     6     9     5   ar
     7     2     1    1
     8     2     3   ar
     9    21    13    1
    10    21    22    1
    11    13    14    1
    12     5     3   ar
    13     5     8   ar
    14     3     4   ar
    15    14    15    1
    16     8     7   ar
    17     4     6   ar
    18    20    18    1
    19    15    16    1
    20    15    17    1
    21    15    18    1
    22     7     6   ar
    23    18    19    1
