@<TRIPOS>MOLECULE
/tmp/ewbell/vina_1dy4_1dy4_lig/vina/vina3.pdbqt
 22 23 0 0 0
SMALL
GASTEIGER

@<TRIPOS>ATOM
      1  O1        25.8910   57.0750   88.7240 O.3   438  INH438     -0.3480
      2  C1        25.1430   56.2880   89.5860 C.ar  438  INH438      0.0800
      3  C9        23.8220   55.9050   89.2060 C.ar  438  INH438      0.0070
      4  C8        23.2940   56.3300   87.9600 C.ar  438  INH438      0.0150
      5  C10       22.9990   55.0890   90.0530 C.ar  438  INH438     -0.0230
      6  C7        21.9740   55.9660   87.5430 C.ar  438  INH438      0.0010
      7  C6        21.1700   55.1530   88.4020 C.ar  438  INH438      0.0010
      8  C5        21.6980   54.7200   89.6580 C.ar  438  INH438      0.0120
      9  C4        23.4880   54.6480   91.2970 C.ar  438  INH438      0.0120
     10  C3        24.8060   55.0130   91.7120 C.ar  438  INH438      0.0040
     11  C2        25.6070   55.8250   90.8530 C.ar  438  INH438      0.0370
     12  C11       27.2980   57.1860   88.8840 C.3   438  INH438      0.2090
     13  C12       27.7250   58.5890   88.4480 C.3   438  INH438      0.1680
     14  C13       28.2240   58.6240   86.9940 C.3   438  INH438      0.2660
     15  N1        27.8380   57.3940   86.3270 N.4   438  INH438     -0.0680
     16  H15       28.6760   56.9200   86.0320 H     438  INH438      0.2770
     17  H14       27.3420   56.8180   86.9910 H     438  INH438      0.2770
     18  C14       26.9890   57.5780   85.1650 C.3   438  INH438      0.1860
     19  C16       25.8080   56.5880   85.1600 C.3   438  INH438      0.0350
     20  C15       26.4520   59.0240   85.1830 C.3   438  INH438      0.0350
     21  O2        28.7690   59.0340   89.2930 O.3   438  INH438     -0.3920
     22  H11       29.5800   59.0740   88.8010 H     438  INH438      0.2100
@<TRIPOS>BOND
     1    19    18    1
     2    18    20    1
     3    18    15    1
     4    16    15    1
     5    15    17    1
     6    15    14    1
     7    14    13    1
     8     6     4   ar
     9     6     7   ar
    10     4     3   ar
    11     7     8   ar
    12    13    12    1
    13    13    21    1
    14     1    12    1
    15     1     2    1
    16    22    21    1
    17     3     2   ar
    18     3     5   ar
    19     2    11   ar
    20     8     5   ar
    21     5     9   ar
    22    11    10   ar
    23     9    10   ar
