@<TRIPOS>MOLECULE
/tmp/ewbell/vina_1dy4_1dy4_lig/vina/vina4.pdbqt
 22 23 0 0 0
SMALL
GASTEIGER

@<TRIPOS>ATOM
      1  O1        27.0660   57.6200   89.0220 O.3   438  INH438     -0.3480
      2  C1        25.9170   56.8470   89.1030 C.ar  438  INH438      0.0800
      3  C9        25.6020   56.2010   90.3350 C.ar  438  INH438      0.0070
      4  C8        26.4580   56.3560   91.4540 C.ar  438  INH438      0.0150
      5  C10       24.4260   55.3910   90.4830 C.ar  438  INH438     -0.0230
      6  C7        26.1750   55.7240   92.7080 C.ar  438  INH438      0.0010
      7  C6        24.9990   54.9210   92.8340 C.ar  438  INH438      0.0010
      8  C5        24.1310   54.7620   91.7090 C.ar  438  INH438      0.0120
      9  C4        23.5520   55.2130   89.3940 C.ar  438  INH438      0.0120
     10  C3        23.8360   55.8440   88.1440 C.ar  438  INH438      0.0040
     11  C2        25.0110   56.6450   88.0210 C.ar  438  INH438      0.0370
     12  C11       28.0260   57.3840   88.0020 C.3   438  INH438      0.2090
     13  C12       28.5100   58.7340   87.4710 C.3   438  INH438      0.1680
     14  C13       27.6780   59.2250   86.2750 C.3   438  INH438      0.2660
     15  N1        28.1230   58.5450   85.0720 N.4   438  INH438     -0.0680
     16  H15       28.5570   59.2240   84.4690 H     438  INH438      0.2770
     17  H14       28.8020   57.8490   85.3380 H     438  INH438      0.2770
     18  C14       27.0680   57.8860   84.3270 C.3   438  INH438      0.1860
     19  C16       27.1140   56.3550   84.5070 C.3   438  INH438      0.0350
     20  C15       25.7120   58.4240   84.8280 C.3   438  INH438      0.0350
     21  O2        29.8580   58.6100   87.0620 O.3   438  INH438     -0.3920
     22  H11       30.3740   59.3040   87.4540 H     438  INH438      0.2100
@<TRIPOS>BOND
     1    18    19    1
     2    18    20    1
     3    18    15    1
     4    16    15    1
     5    15    17    1
     6    15    14    1
     7    14    13    1
     8    21    22    1
     9    21    13    1
    10    13    12    1
    11    12     1    1
    12    11    10   ar
    13    11     2   ar
    14    10     9   ar
    15     1     2    1
    16     2     3   ar
    17     9     5   ar
    18     3     5   ar
    19     3     4   ar
    20     5     8   ar
    21     4     6   ar
    22     8     7   ar
    23     6     7   ar
