@<TRIPOS>MOLECULE
/tmp/ewbell/vina_1dy4_1dy4_lig/vina/vina2.pdbqt
 22 23 0 0 0
SMALL
GASTEIGER

@<TRIPOS>ATOM
      1  O1        24.9930   55.1530   90.3150 O.3   438  INH438     -0.3480
      2  C1        23.8700   55.3230   89.5190 C.ar  438  INH438      0.0800
      3  C9        22.6360   54.7330   89.9250 C.ar  438  INH438      0.0070
      4  C8        22.5720   53.9870   91.1280 C.ar  438  INH438      0.0150
      5  C10       21.4390   54.8760   89.1460 C.ar  438  INH438     -0.0230
      6  C7        21.3520   53.3810   91.5700 C.ar  438  INH438      0.0010
      7  C6        20.1710   53.5340   90.7800 C.ar  438  INH438      0.0010
      8  C5        20.2290   54.2870   89.5660 C.ar  438  INH438      0.0120
      9  C4        21.4630   55.6090   87.9450 C.ar  438  INH438      0.0120
     10  C3        22.6810   56.2140   87.5060 C.ar  438  INH438      0.0040
     11  C2        23.8600   56.0590   88.2970 C.ar  438  INH438      0.0370
     12  C11       25.7210   56.2770   90.7880 C.3   438  INH438      0.2090
     13  C12       26.7340   55.7950   91.8270 C.3   438  INH438      0.1680
     14  C13       26.1340   55.7290   93.2420 C.3   438  INH438      0.2660
     15  N1        25.4930   54.4400   93.4290 N.4   438  INH438     -0.0680
     16  H15       25.2620   54.0700   92.5220 H     438  INH438      0.2770
     17  H14       26.1490   53.8260   93.8850 H     438  INH438      0.2770
     18  C14       24.2810   54.4790   94.2240 C.3   438  INH438      0.1860
     19  C16       23.7080   53.0670   94.4590 C.3   438  INH438      0.0350
     20  C15       24.6130   55.1340   95.5800 C.3   438  INH438      0.0350
     21  O2        27.8320   56.6860   91.8450 O.3   438  INH438     -0.3920
     22  H11       28.4730   56.3870   92.4790 H     438  INH438      0.2100
@<TRIPOS>BOND
     1    10     9   ar
     2    10    11   ar
     3     9     5   ar
     4    11     2   ar
     5     5     8   ar
     6     5     3   ar
     7     2     3   ar
     8     2     1    1
     9     8     7   ar
    10     3     4   ar
    11     1    12    1
    12     7     6   ar
    13    12    13    1
    14     4     6   ar
    15    13    21    1
    16    13    14    1
    17    21    22    1
    18    16    15    1
    19    14    15    1
    20    15    17    1
    21    15    18    1
    22    18    19    1
    23    18    20    1
