@<TRIPOS>MOLECULE
./ligand/1w2g_lig.pdb
 31 32 0 0 0
SMALL
GASTEIGER

@<TRIPOS>ATOM
      1  O1        32.3410   25.9330   88.8560 O.3   409  INH409     -0.3924
      2  C1        31.3360   26.4800   88.0450 C.3   409  INH409      0.0729
      3  C2        30.4990   25.3810   87.2800 C.3   409  INH409      0.1100
      4  O2        31.0250   24.7760   86.0910 O.3   409  INH409     -0.3483
      5  C3        29.9540   24.0800   87.9600 C.3   409  INH409      0.0876
      6  C4        31.2300   23.2260   87.7370 C.3   409  INH409      0.0214
      7  C5        31.4830   23.4560   86.2720 C.3   409  INH409      0.1422
      8  N1        32.8910   23.4430   85.7840 N.ar  409  INH409     -0.2737
      9  C6        33.2270   22.7100   84.6780 C.ar  409  INH409      0.3313
     10  O3        32.3140   22.0590   84.0860 O.2   409  INH409     -0.2464
     11  N2        34.4820   22.6590   84.2020 N.ar  409  INH409     -0.2747
     12  C7        35.4540   23.3400   84.8190 C.ar  409  INH409      0.2568
     13  O4        36.6730   23.2750   84.3390 O.2   409  INH409     -0.2674
     14  C8        35.1570   24.1140   85.9680 C.ar  409  INH409      0.0302
     15  C9        36.2310   24.9020   86.6990 C.3   409  INH409     -0.0332
     16  C10       33.8320   24.1490   86.4420 C.ar  409  INH409      0.0199
     17  H1        32.8120   26.6330   89.2920 H     409  INH409      0.2095
     18  H2        31.8050   27.1430   87.3030 H     409  INH409      0.0584
     19  H3        30.6520   27.0640   88.6790 H     409  INH409      0.0584
     20  H4        29.6100   25.9520   86.9730 H     409  INH409      0.0646
     21  H5        29.8400   24.2590   89.0390 H     409  INH409      0.0621
     22  H6        31.0460   22.1630   87.9520 H     409  INH409      0.0335
     23  H7        32.0680   23.5850   88.3520 H     409  INH409      0.0335
     24  H8        30.8990   22.7330   85.6840 H     409  INH409      0.0840
     25  H9        34.6890   22.1140   83.3900 H     409  INH409      0.1734
     26  H10       35.7820   25.4260   87.5560 H     409  INH409      0.0280
     27  H11       36.6780   25.6370   86.0130 H     409  INH409      0.0280
     28  H12       37.0110   24.2140   87.0580 H     409  INH409      0.0280
     29  H13       33.5720   24.7350   87.3230 H     409  INH409      0.0816
     30  O5        28.6030   23.5750   87.5180 O.3   409  INH409     -0.3890
     31  H14       28.3860   22.7860   88.0010 H     409  INH409      0.2099
@<TRIPOS>BOND
     1     1     2    1
     2     1    17    1
     3     2     3    1
     4     2    19    1
     5     2    18    1
     6     3     4    1
     7     3     5    1
     8     3    20    1
     9     4     7    1
    10     5    21    1
    11     5     6    1
    12     5    30    1
    13     6     7    1
    14     6    23    1
    15     6    22    1
    16     7     8    1
    17     7    24    1
    18     8    16   ar
    19     8     9   ar
    20     9    11   ar
    21     9    10    2
    22    11    12   ar
    23    11    25    1
    24    12    14   ar
    25    12    13    2
    26    14    15    1
    27    14    16   ar
    28    15    26    1
    29    15    28    1
    30    15    27    1
    31    16    29    1
    32    30    31    1
