@<TRIPOS>MOLECULE
/tmp/ewbell/vina_1w2g_1w2g_lig/vina/vina3.pdbqt
 21 22 0 0 0
SMALL
GASTEIGER

@<TRIPOS>ATOM
      1  N1        33.1690   26.9910   93.3650 N.am  409  INH409     -0.2820
      2  C6        34.4490   26.9030   92.8910 C.2   409  INH409      0.3300
      3  O3        35.0910   25.8270   93.0830 O.2   409  INH409     -0.2460
      4  N2        35.0430   27.9120   92.2320 N.am  409  INH409     -0.2880
      5  C7        34.3770   29.0530   92.0250 C.2   409  INH409      0.1510
      6  C8        33.0480   29.1930   92.4960 C.2   409  INH409      0.0050
      7  C9        32.2560   30.4710   92.2820 C.3   409  INH409      0.0540
      8  C10       32.4510   28.1170   93.1810 C.3   409  INH409      0.1090
      9  H9        35.9800   27.8110   91.8990 H     409  INH409      0.1720
     10  C5        32.5630   25.8420   94.0960 C.3   409  INH409      0.2350
     11  O2        32.0220   24.9980   93.1070 O.3   409  INH409     -0.3560
     12  C2        30.6330   24.6920   93.2940 C.3   409  INH409      0.1760
     13  C3        30.6070   24.7590   94.8580 C.3   409  INH409      0.1530
     14  C4        31.3750   26.1020   94.9820 C.3   409  INH409      0.0880
     15  C1        29.5430   25.3700   92.3740 C.3   409  INH409      0.1980
     16  O1        28.5410   26.0220   93.1070 O.3   409  INH409     -0.3980
     17  H1        28.7580   26.9440   93.1870 H     409  INH409      0.2090
     18  O5        31.0650   23.5380   95.6170 O.3   409  INH409     -0.3930
     19  H14       30.3730   22.8870   95.6170 H     409  INH409      0.2100
     20  O4        34.9760   30.0260   91.3810 O.2   409  INH409     -0.3460
     21  H4        34.8150   30.9220   91.6530 H     409  INH409      0.2190
@<TRIPOS>BOND
     1    20    21    1
     2    20     5    1
     3     9     4    1
     4     5     4    1
     5     5     6    2
     6     4     2   am
     7     7     6    1
     8    15    16    1
     9    15    12    1
    10     6     8    1
    11     2     3    2
    12     2     1   am
    13    16    17    1
    14    11    12    1
    15    11    10    1
    16     8     1    1
    17    12    13    1
    18     1    10    1
    19    10    14    1
    20    13    14    1
    21    13    18    1
    22    18    19    1
