@<TRIPOS>MOLECULE
/tmp/ewbell/vina_1w2g_1w2g_lig/vina/vina1.pdbqt
 21 22 0 0 0
SMALL
GASTEIGER

@<TRIPOS>ATOM
      1  N1        32.7130   23.8110   85.7530 N.am  409  INH409     -0.2820
      2  C6        32.9940   22.8260   84.8450 C.2   409  INH409      0.3300
      3  O3        32.0290   22.1740   84.3460 O.2   409  INH409     -0.2460
      4  N2        34.2490   22.5310   84.4690 N.am  409  INH409     -0.2880
      5  C7        35.2760   23.2110   84.9900 C.2   409  INH409      0.1510
      6  C8        35.0370   24.2410   85.9340 C.2   409  INH409      0.0050
      7  C9        36.1740   25.0360   86.5510 C.3   409  INH409      0.0540
      8  C10       33.7110   24.5280   86.3080 C.3   409  INH409      0.1090
      9  H9        34.4150   21.8060   83.8010 H     409  INH409      0.1720
     10  C5        31.3010   24.0890   86.1400 C.3   409  INH409      0.2350
     11  O2        31.2780   25.4280   86.5770 O.3   409  INH409     -0.3560
     12  C2        30.7330   25.6060   87.8910 C.3   409  INH409      0.1760
     13  C3        29.7240   24.4090   87.8690 C.3   409  INH409      0.1530
     14  C4        30.7240   23.3560   87.3210 C.3   409  INH409      0.0880
     15  C1        31.6880   25.9190   89.1080 C.3   409  INH409      0.1980
     16  O1        31.3470   25.2050   90.2660 O.3   409  INH409     -0.3980
     17  H1        32.0800   24.6600   90.5280 H     409  INH409      0.2090
     18  O5        28.3930   24.6300   87.1940 O.3   409  INH409     -0.3930
     19  H14       27.8660   23.8430   87.2670 H     409  INH409      0.2100
     20  O4        36.4930   22.9060   84.6100 O.2   409  INH409     -0.3460
     21  H4        37.1090   22.5850   85.2590 H     409  INH409      0.2190
@<TRIPOS>BOND
     1     9     4    1
     2     3     2    2
     3     4     2   am
     4     4     5    1
     5    20     5    1
     6    20    21    1
     7     2     1   am
     8     5     6    2
     9     1    10    1
    10     1     8    1
    11     6     8    1
    12     6     7    1
    13    10    11    1
    14    10    14    1
    15    11    12    1
    16    18    19    1
    17    18    13    1
    18    14    13    1
    19    13    12    1
    20    12    15    1
    21    15    16    1
    22    16    17    1
