@<TRIPOS>MOLECULE
/tmp/ewbell/vina_1w2g_1w2g_lig/vina/vina5.pdbqt
 21 22 0 0 0
SMALL
GASTEIGER

@<TRIPOS>ATOM
      1  N1        31.3440   24.6810   87.6570 N.am  409  INH409     -0.2820
      2  C6        30.8650   23.5290   87.0950 C.2   409  INH409      0.3300
      3  O3        29.6510   23.2210   87.2940 O.2   409  INH409     -0.2460
      4  N2        31.6320   22.7210   86.3450 N.am  409  INH409     -0.2880
      5  C7        32.9140   23.0340   86.1300 C.2   409  INH409      0.1510
      6  C8        33.4580   24.2170   86.6890 C.2   409  INH409      0.0050
      7  C9        34.9080   24.6100   86.4700 C.3   409  INH409      0.0540
      8  C10       32.6290   25.0450   87.4700 C.3   409  INH409      0.1090
      9  H9        31.2460   21.8880   85.9490 H     409  INH409      0.1720
     10  C5        30.4490   25.5350   88.4880 C.3   409  INH409      0.2350
     11  O2        31.1350   26.7530   88.6660 O.3   409  INH409     -0.3560
     12  C2        31.2930   27.1400   90.0370 C.3   409  INH409      0.1760
     13  C3        29.9820   26.4900   90.5960 C.3   409  INH409      0.1530
     14  C4        30.1680   25.1140   89.9040 C.3   409  INH409      0.0880
     15  C1        32.7010   27.0070   90.7400 C.3   409  INH409      0.1980
     16  O1        32.6390   26.3110   91.9550 O.3   409  INH409     -0.3980
     17  H1        33.4980   26.3070   92.3620 H     409  INH409      0.2090
     18  O5        28.6970   27.2640   90.4380 O.3   409  INH409     -0.3930
     19  H14       28.7660   28.0920   90.9000 H     409  INH409      0.2100
     20  O4        33.6460   22.2310   85.3960 O.2   409  INH409     -0.3460
     21  H4        33.3410   21.3430   85.2460 H     409  INH409      0.2190
@<TRIPOS>BOND
     1    21    20    1
     2    20     5    1
     3     9     4    1
     4     5     4    1
     5     5     6    2
     6     4     2   am
     7     7     6    1
     8     6     8    1
     9     2     3    2
    10     2     1   am
    11     8     1    1
    12     1    10    1
    13    10    11    1
    14    10    14    1
    15    11    12    1
    16    14    13    1
    17    12    13    1
    18    12    15    1
    19    18    13    1
    20    18    19    1
    21    15    16    1
    22    16    17    1
