@<TRIPOS>MOLECULE
/tmp/ewbell/vina_1w2g_1w2g_lig/vina/vina2.pdbqt
 21 22 0 0 0
SMALL
GASTEIGER

@<TRIPOS>ATOM
      1  N1        32.5740   24.2810   86.3820 N.am  409  INH409     -0.2820
      2  C6        31.7190   23.3780   85.8100 C.2   409  INH409      0.3300
      3  O3        30.4890   23.4390   86.1120 O.2   409  INH409     -0.2460
      4  N2        32.1370   22.4380   84.9460 N.am  409  INH409     -0.2880
      5  C7        33.4320   22.3630   84.6220 C.2   409  INH409      0.1510
      6  C8        34.3580   23.2750   85.1860 C.2   409  INH409      0.0050
      7  C9        35.8370   23.2240   84.8460 C.3   409  INH409      0.0540
      8  C10       33.8900   24.2510   86.0870 C.3   409  INH409      0.1090
      9  H9        31.4820   21.7970   84.5480 H     409  INH409      0.1720
     10  C5        32.0560   25.2970   87.3400 C.3   409  INH409      0.2350
     11  O2        31.9170   24.6280   88.5720 O.3   409  INH409     -0.3560
     12  C2        30.6060   24.7260   89.1460 C.3   409  INH409      0.1760
     13  C3        30.2270   26.1350   88.5770 C.3   409  INH409      0.1530
     14  C4        30.6760   25.8540   87.1180 C.3   409  INH409      0.0880
     15  C1        29.6340   23.4820   89.1150 C.3   409  INH409      0.1980
     16  O1        29.6020   22.7860   90.3310 O.3   409  INH409     -0.3980
     17  H1        30.3960   22.9660   90.8200 H     409  INH409      0.2090
     18  O5        30.7340   27.3470   89.3180 O.3   409  INH409     -0.3930
     19  H14       30.0850   28.0390   89.2750 H     409  INH409      0.2100
     20  O4        33.8180   21.4360   83.7780 O.2   409  INH409     -0.3460
     21  H4        33.4800   20.5550   83.8800 H     409  INH409      0.2190
@<TRIPOS>BOND
     1    20    21    1
     2    20     5    1
     3     9     4    1
     4     5     4    1
     5     5     6    2
     6     7     6    1
     7     4     2   am
     8     6     8    1
     9     2     3    2
    10     2     1   am
    11     8     1    1
    12     1    10    1
    13    14    10    1
    14    14    13    1
    15    10    11    1
    16    11    12    1
    17    13    12    1
    18    13    18    1
    19    15    12    1
    20    15    16    1
    21    19    18    1
    22    16    17    1
