@<TRIPOS>MOLECULE
/tmp/ewbell/vina_1w2g_1w2g_lig/vina/vina4.pdbqt
 21 22 0 0 0
SMALL
GASTEIGER

@<TRIPOS>ATOM
      1  N1        31.1660   24.1340   88.0200 N.am  409  INH409     -0.2820
      2  C6        29.8540   23.8900   88.3210 C.2   409  INH409      0.3300
      3  O3        29.2850   22.8970   87.7770 O.2   409  INH409     -0.2460
      4  N2        29.1550   24.6620   89.1700 N.am  409  INH409     -0.2880
      5  C7        29.7430   25.7140   89.7490 C.2   409  INH409      0.1510
      6  C8        31.1010   26.0090   89.4690 C.2   409  INH409      0.0050
      7  C9        31.8070   27.1940   90.1040 C.3   409  INH409      0.0540
      8  C10       31.8080   25.1810   88.5770 C.3   409  INH409      0.1090
      9  H9        28.1980   24.4520   89.3670 H     409  INH409      0.1720
     10  C5        31.8900   23.2490   87.0650 C.3   409  INH409      0.2350
     11  O2        33.1910   23.1030   87.5850 O.3   409  INH409     -0.3560
     12  C2        34.2330   23.4490   86.6630 C.3   409  INH409      0.1760
     13  C3        33.4930   23.0460   85.3430 C.3   409  INH409      0.1530
     14  C4        32.1560   23.7590   85.6750 C.3   409  INH409      0.0880
     15  C1        35.0280   24.8010   86.8390 C.3   409  INH409      0.1980
     16  O1        36.0440   24.9640   85.8870 O.3   409  INH409     -0.3980
     17  H1        36.8840   25.0270   86.3280 H     409  INH409      0.2090
     18  O5        33.5120   21.5900   84.9480 O.3   409  INH409     -0.3930
     19  H14       34.0460   21.1020   85.5650 H     409  INH409      0.2100
     20  O4        29.0420   26.4560   90.5720 O.2   409  INH409     -0.3460
     21  H4        28.5140   27.1610   90.2160 H     409  INH409      0.2190
@<TRIPOS>BOND
     1    18    13    1
     2    18    19    1
     3    13    14    1
     4    13    12    1
     5    14    10    1
     6    16    17    1
     7    16    15    1
     8    12    15    1
     9    12    11    1
    10    10    11    1
    11    10     1    1
    12     3     2    2
    13     1     2   am
    14     1     8    1
    15     2     4   am
    16     8     6    1
    17     4     9    1
    18     4     5    1
    19     6     5    2
    20     6     7    1
    21     5    20    1
    22    21    20    1
