@<TRIPOS>MOLECULE
./ligand/2pwg_lig.pdb
 29 30 0 0 0
SMALL
GASTEIGER

@<TRIPOS>ATOM
      1  C1        20.0830   34.2930  112.2200 C.3   559  INH559     -0.0023
      2  C2        20.7070   34.5890  110.8970 C.3   559  INH559      0.1231
      3  C3        21.9780   35.5440  111.0290 C.3   559  INH559      0.1171
      4  C4        22.3490   35.9910  112.4640 C.3   559  INH559      0.1283
      5  C5        22.1740   34.8880  113.5380 C.3   559  INH559      0.0349
      6  C6        21.9750   35.3560  115.0110 C.3   559  INH559      0.1050
      7  O1        21.0120   33.3270  110.2660 O.3   559  INH559     -0.3838
      8  O2        21.7080   36.7660  110.3030 O.3   559  INH559     -0.3862
      9  O3        23.7120   36.4430  112.5220 O.3   559  INH559     -0.3834
     10  O4        22.5080   36.6620  115.3030 O.3   559  INH559     -0.3859
     11  N1        21.0370   33.9920  113.2870 N.4   559  INH559      0.2431
     12  C7        20.4420   35.2890  115.1520 C.3   559  INH559      0.0189
     13  C8        20.2730   33.8860  114.5330 C.3   559  INH559     -0.0288
     14  H1        19.4170   33.4250  112.1000 H     559  INH559      0.0841
     15  H2        19.4920   35.1690  112.5250 H     559  INH559      0.0841
     16  H3        19.9670   35.1140  110.2750 H     559  INH559      0.0674
     17  H4        22.8420   35.0240  110.5890 H     559  INH559      0.0649
     18  H5        21.6880   36.8300  112.7280 H     559  INH559      0.0678
     19  H6        23.0970   34.2900  113.5030 H     559  INH559      0.0904
     20  H7        22.4510   34.6400  115.6980 H     559  INH559      0.0653
     21  H8        21.2630   32.6950  110.9300 H     559  INH559      0.2101
     22  H9        21.4720   36.5550  109.4070 H     559  INH559      0.2100
     23  H10       23.8920   36.7910  113.3870 H     559  INH559      0.2102
     24  H11       23.4430   36.6660  115.1360 H     559  INH559      0.2100
     25  H12       21.4310   33.0900  113.0680 H     559  INH559      0.2039
     26  H13       19.9290   36.0710  114.5730 H     559  INH559      0.0344
     27  H14       20.1110   35.3320  116.2000 H     559  INH559      0.0344
     28  H15       20.6910   33.1090  115.1900 H     559  INH559      0.0815
     29  H16       19.2140   33.6660  114.3320 H     559  INH559      0.0815
@<TRIPOS>BOND
     1     1    15    1
     2     1    14    1
     3     1    11    1
     4     1     2    1
     5     2    16    1
     6     2     7    1
     7     2     3    1
     8     3    17    1
     9     3     8    1
    10     3     4    1
    11     4    18    1
    12     4     9    1
    13     4     5    1
    14     5    19    1
    15     5    11    1
    16     5     6    1
    17     6    20    1
    18     6    12    1
    19     6    10    1
    20     7    21    1
    21     8    22    1
    22     9    23    1
    23    10    24    1
    24    11    13    1
    25    11    25    1
    26    12    27    1
    27    12    26    1
    28    12    13    1
    29    13    29    1
    30    13    28    1
