@<TRIPOS>MOLECULE
/tmp/ewbell/vina_2pwg_2pwg_lig/vina/vina4.pdbqt
 18 19 0 0 0
SMALL
GASTEIGER

@<TRIPOS>ATOM
      1  C1        14.2040   37.5080  124.8760 C.3   559  INH559      0.2690
      2  C2        14.0760   37.8170  123.4210 C.3   559  INH559      0.1750
      3  C3        15.4660   37.6810  122.6510 C.3   559  INH559      0.1790
      4  C4        16.6830   37.2600  123.5090 C.3   559  INH559      0.1820
      5  C5        16.3620   36.1960  124.5880 C.3   559  INH559      0.2470
      6  C6        17.3150   36.1200  125.8180 C.3   559  INH559      0.1530
      7  N1        15.0230   36.3350  125.1770 N.4   559  INH559     -0.0590
      8  C7        16.5400   36.9480  126.8620 C.3   559  INH559      0.0610
      9  C8        15.1710   36.2740  126.6340 C.3   559  INH559      0.2380
     10  H12       14.4940   35.5340  124.8690 H     559  INH559      0.2800
     11  O1        13.0460   36.9610  122.8820 O.3   559  INH559     -0.3910
     12  H8        12.9120   36.2230  123.4660 H     559  INH559      0.2100
     13  O2        15.8110   38.9740  122.1010 O.3   559  INH559     -0.3900
     14  H9        16.7330   38.9820  121.8680 H     559  INH559      0.2100
     15  O3        17.7360   36.7380  122.6820 O.3   559  INH559     -0.3910
     16  H10       18.2510   36.1170  123.1830 H     559  INH559      0.2100
     17  O4        18.6440   36.6230  125.5790 O.3   559  INH559     -0.3930
     18  H11       18.6880   37.5350  125.8390 H     559  INH559      0.2100
@<TRIPOS>BOND
     1    14    13    1
     2    13     3    1
     3     3     2    1
     4     3     4    1
     5    15    16    1
     6    15     4    1
     7    11     2    1
     8    11    12    1
     9     2     1    1
    10     4     5    1
    11     5     7    1
    12     5     6    1
    13    10     7    1
    14     1     7    1
    15     7     9    1
    16    17     6    1
    17    17    18    1
    18     6     8    1
    19     9     8    1
