@<TRIPOS>MOLECULE
/tmp/ewbell/vina_2pwg_2pwg_lig/vina/vina2.pdbqt
 18 19 0 0 0
SMALL
GASTEIGER

@<TRIPOS>ATOM
      1  C1        19.4170   38.1290  113.2980 C.3   559  INH559      0.2690
      2  C2        19.4570   39.4580  113.9750 C.3   559  INH559      0.1750
      3  C3        20.3140   39.4250  115.3200 C.3   559  INH559      0.1790
      4  C4        20.9500   38.0630  115.6900 C.3   559  INH559      0.1820
      5  C5        21.4970   37.2670  114.4780 C.3   559  INH559      0.2470
      6  C6        21.6300   35.7240  114.6440 C.3   559  INH559      0.1530
      7  N1        20.7020   37.4310  113.2540 N.4   559  INH559     -0.0590
      8  C7        20.3330   35.2280  113.9770 C.3   559  INH559      0.0610
      9  C8        20.4500   36.0960  112.7070 C.3   559  INH559      0.2380
     10  H12       21.2810   37.9450  112.6080 H     559  INH559      0.2800
     11  O1        19.9450   40.4220  113.0170 O.3   559  INH559     -0.3910
     12  H8        20.2220   41.2080  113.4740 H     559  INH559      0.2100
     13  O2        19.4420   39.7560  116.4250 O.3   559  INH559     -0.3900
     14  H9        19.8450   39.4770  117.2390 H     559  INH559      0.2100
     15  O3        22.0320   38.2400  116.6190 O.3   559  INH559     -0.3910
     16  H10       21.7240   38.7330  117.3710 H     559  INH559      0.2100
     17  O4        21.7660   35.2760  116.0070 O.3   559  INH559     -0.3930
     18  H11       22.6480   34.9530  116.1470 H     559  INH559      0.2100
@<TRIPOS>BOND
     1    10     7    1
     2     9     7    1
     3     9     8    1
     4    11    12    1
     5    11     2    1
     6     7     1    1
     7     7     5    1
     8     1     2    1
     9     2     3    1
    10     8     6    1
    11     5     6    1
    12     5     4    1
    13     6    17    1
    14     3     4    1
    15     3    13    1
    16     4    15    1
    17    17    18    1
    18    13    14    1
    19    15    16    1
