@<TRIPOS>MOLECULE
/tmp/ewbell/vina_2pwg_2pwg_lig/vina/vina5.pdbqt
 18 19 0 0 0
SMALL
GASTEIGER

@<TRIPOS>ATOM
      1  C1        19.8340   37.2960  114.2280 C.3   559  INH559      0.2690
      2  C2        20.3090   37.1000  115.6290 C.3   559  INH559      0.1750
      3  C3        21.4490   35.9890  115.7300 C.3   559  INH559      0.1790
      4  C4        21.8680   35.3190  114.3980 C.3   559  INH559      0.1820
      5  C5        21.9240   36.2870  113.1900 C.3   559  INH559      0.2470
      6  C6        21.7800   35.6610  111.7700 C.3   559  INH559      0.1530
      7  N1        20.8990   37.3390  113.2260 N.4   559  INH559     -0.0590
      8  C7        20.2840   35.8940  111.4800 C.3   559  INH559      0.0610
      9  C8        20.2540   37.3750  111.9110 C.3   559  INH559      0.2380
     10  H12       21.3900   38.2070  113.3730 H     559  INH559      0.2800
     11  O1        20.7280   38.3860  116.1320 O.3   559  INH559     -0.3910
     12  H8        20.9130   38.3160  117.0620 H     559  INH559      0.2100
     13  O2        20.9650   34.9120  116.5660 O.3   559  INH559     -0.3900
     14  H9        20.2430   34.4750  116.1310 H     559  INH559      0.2100
     15  O3        23.1600   34.7010  114.5210 O.3   559  INH559     -0.3910
     16  H10       23.4510   34.7560  115.4240 H     559  INH559      0.2100
     17  O4        22.1570   34.2730  111.6860 O.3   559  INH559     -0.3930
     18  H11       23.1040   34.2020  111.6970 H     559  INH559      0.2100
@<TRIPOS>BOND
     1     8     6    1
     2     8     9    1
     3    17    18    1
     4    17     6    1
     5     6     5    1
     6     9     7    1
     7     5     7    1
     8     5     4    1
     9     7    10    1
    10     7     1    1
    11     1     2    1
    12     4    15    1
    13     4     3    1
    14    15    16    1
    15     2     3    1
    16     2    11    1
    17     3    13    1
    18    14    13    1
    19    11    12    1
