@<TRIPOS>MOLECULE
/tmp/ewbell/vina_2pwg_2pwg_lig/vina/vina1.pdbqt
 18 19 0 0 0
SMALL
GASTEIGER

@<TRIPOS>ATOM
      1  C1        20.5930   36.5510  112.3360 C.3   559  INH559      0.2690
      2  C2        21.6060   36.1190  111.3290 C.3   559  INH559      0.1750
      3  C3        22.9530   35.6030  112.0110 C.3   559  INH559      0.1790
      4  C4        22.9880   35.6290  113.5590 C.3   559  INH559      0.1820
      5  C5        21.6510   35.2260  114.2310 C.3   559  INH559      0.2470
      6  C6        21.4020   35.7400  115.6810 C.3   559  INH559      0.1530
      7  N1        20.4600   35.6570  113.4860 N.4   559  INH559     -0.0590
      8  C7        20.5280   36.9830  115.4230 C.3   559  INH559      0.0610
      9  C8        19.5540   36.3070  114.4360 C.3   559  INH559      0.2380
     10  H12       20.0230   34.8160  113.1410 H     559  INH559      0.2800
     11  O1        20.9860   35.1270  110.4840 O.3   559  INH559     -0.3910
     12  H8        20.0970   35.3960  110.2830 H     559  INH559      0.2100
     13  O2        24.0380   36.4620  111.5870 O.3   559  INH559     -0.3900
     14  H9        24.3860   36.9250  112.3410 H     559  INH559      0.2100
     15  O3        24.0100   34.7530  114.0620 O.3   559  INH559     -0.3910
     16  H10       24.7810   34.8210  113.5130 H     559  INH559      0.2100
     17  O4        22.5980   36.0400  116.4250 O.3   559  INH559     -0.3930
     18  H11       22.3750   36.5710  117.1810 H     559  INH559      0.2100
@<TRIPOS>BOND
     1    12    11    1
     2    11     2    1
     3     2     3    1
     4     2     1    1
     5    13     3    1
     6    13    14    1
     7     3     4    1
     8     1     7    1
     9    10     7    1
    10     7     5    1
    11     7     9    1
    12    16    15    1
    13     4    15    1
    14     4     5    1
    15     5     6    1
    16     9     8    1
    17     8     6    1
    18     6    17    1
    19    17    18    1
