@<TRIPOS>MOLECULE
/tmp/ewbell/vina_2pwg_2pwg_lig/vina/vina3.pdbqt
 18 19 0 0 0
SMALL
GASTEIGER

@<TRIPOS>ATOM
      1  C1        20.6220   36.4930  112.3400 C.3   559  INH559      0.2690
      2  C2        21.4410   35.2480  112.4270 C.3   559  INH559      0.1750
      3  C3        22.2110   35.1280  113.8180 C.3   559  INH559      0.1790
      4  C4        21.9880   36.2830  114.8240 C.3   559  INH559      0.1820
      5  C5        20.5360   36.8220  114.8600 C.3   559  INH559      0.2470
      6  C6        20.3310   38.2770  115.3780 C.3   559  INH559      0.1530
      7  N1        19.8660   36.8070  113.5520 N.4   559  INH559     -0.0590
      8  C7        20.2510   39.0680  114.0580 C.3   559  INH559      0.0610
      9  C8        19.2560   38.1240  113.3520 C.3   559  INH559      0.2380
     10  H12       19.1350   36.1150  113.6170 H     559  INH559      0.2800
     11  O1        20.5650   34.1310  112.1680 O.3   559  INH559     -0.3910
     12  H8        20.5010   33.9910  111.2300 H     559  INH559      0.2100
     13  O2        23.6340   35.1180  113.5530 O.3   559  INH559     -0.3900
     14  H9        23.9810   34.2500  113.7260 H     559  INH559      0.2100
     15  O3        22.3340   35.8740  116.1570 O.3   559  INH559     -0.3910
     16  H10       21.7320   35.2000  116.4460 H     559  INH559      0.2100
     17  O4        21.3690   38.7540  116.2550 O.3   559  INH559     -0.3930
     18  H11       22.1490   38.2240  116.1390 H     559  INH559      0.2100
@<TRIPOS>BOND
     1    12    11    1
     2    11     2    1
     3     1     2    1
     4     1     7    1
     5     2     3    1
     6     9     7    1
     7     9     8    1
     8     7    10    1
     9     7     5    1
    10    13    14    1
    11    13     3    1
    12     3     4    1
    13     8     6    1
    14     4     5    1
    15     4    15    1
    16     5     6    1
    17     6    17    1
    18    18    17    1
    19    15    16    1
