@<TRIPOS>MOLECULE
./ligand/2q3c_lig.pdb
 65 65 0 0 0
SMALL
GASTEIGER

@<TRIPOS>ATOM
      1  N1        12.8130  -14.3860    1.7890 N.4   605  INH605      0.2278
      2  C1        12.7340  -15.8460    2.1290 C.3   605  INH605      0.0635
      3  C2        11.2740  -16.2990    1.9920 C.2   605  INH605      0.2623
      4  O1        10.3950  -15.4600    1.7270 O.2   605  INH605     -0.2696
      5  C3        13.2550  -16.0750    3.5500 C.3   605  INH605      0.1004
      6  C4        13.8120  -17.4680    3.7540 C.2   605  INH605      0.3619
      7  O2        14.4180  -17.6980    4.8160 O.co2 605  INH605     -0.2461
      8  O3        13.6460  -18.3320    2.8680 O.co2 605  INH605     -0.2461
      9  H1        14.0570  -15.3490    3.7460 H     605  INH605      0.0440
     10  H2        12.4070  -15.9520    4.2390 H     605  INH605      0.0440
     11  H3        13.3590  -16.4370    1.4430 H     605  INH605      0.0954
     12  H4        12.8310  -13.8470    2.6320 H     605  INH605      0.2002
     13  H5        13.6460  -14.2110    1.2640 H     605  INH605      0.2002
     14  H6        12.0150  -14.1270    1.2450 H     605  INH605      0.2002
     15  N2        11.0090  -17.5950    2.1680 N.am  605  INH605     -0.2991
     16  C5         9.6550  -18.1340    1.9540 C.3   605  INH605      0.1035
     17  C6         8.5920  -17.4820    2.8420 C.2   605  INH605      0.2343
     18  O4         8.8670  -17.0990    3.9800 O.2   605  INH605     -0.2738
     19  C7         9.6150  -19.6710    2.0590 C.3   605  INH605     -0.0007
     20  C8         9.8640  -20.2090    3.4470 C.ar  605  INH605     -0.0451
     21  C9         8.8160  -20.3700    4.3490 C.ar  605  INH605     -0.0585
     22  C10       11.1450  -20.5840    3.8410 C.ar  605  INH605     -0.0585
     23  C11        9.0390  -20.8760    5.6320 C.ar  605  INH605     -0.0615
     24  C12       11.3800  -21.0940    5.1180 C.ar  605  INH605     -0.0615
     25  C13       10.3240  -21.2370    6.0190 C.ar  605  INH605     -0.0617
     26  H7        10.5040  -21.6260    7.0100 H     605  INH605      0.0618
     27  H8        12.3800  -21.3780    5.4100 H     605  INH605      0.0618
     28  H9         8.2150  -20.9860    6.3210 H     605  INH605      0.0618
     29  H10       11.9680  -20.4790    3.1490 H     605  INH605      0.0620
     30  H11        7.8140  -20.0990    4.0520 H     605  INH605      0.0620
     31  H12        8.6160  -20.0050    1.7420 H     605  INH605      0.0336
     32  H13       10.4260  -20.0530    1.4220 H     605  INH605      0.0336
     33  H14        9.3960  -17.8660    0.9190 H     605  INH605      0.0598
     34  H15       11.7440  -18.2120    2.4510 H     605  INH605      0.1497
     35  N3         7.3890  -17.3380    2.2910 N.am  605  INH605     -0.3006
     36  C14        6.2430  -16.7890    3.0160 C.3   605  INH605      0.1226
     37  C15        5.1040  -17.7990    3.0330 C.2   605  INH605      0.2363
     38  O5         4.3350  -17.8990    2.0830 O.2   605  INH605     -0.2737
     39  C16        5.7700  -15.4870    2.3760 C.3   605  INH605      0.0711
     40  O6         6.5970  -14.4180    2.7710 O.3   605  INH605     -0.3927
     41  H16        4.7370  -15.2820    2.6950 H     605  INH605      0.0580
     42  H17        5.8160  -15.5890    1.2820 H     605  INH605      0.0580
     43  H18        6.5570  -16.5770    4.0490 H     605  INH605      0.0618
     44  H19        7.2630  -17.6180    1.3390 H     605  INH605      0.1496
     45  H20        6.7830  -14.4880    3.7000 H     605  INH605      0.2095
     46  N4         5.0190  -18.5530    4.1180 N.am  605  INH605     -0.3004
     47  C17        4.0430  -19.6200    4.2420 C.3   605  INH605      0.1272
     48  C18        3.3330  -19.4350    5.5790 C.2   605  INH605      0.3761
     49  O7         3.9210  -19.5570    6.6640 O.co2 605  INH605     -0.2443
     50  C19        4.6950  -21.0140    4.0750 C.3   605  INH605     -0.0151
     51  C20        5.3200  -21.1230    2.6770 C.3   605  INH605     -0.0511
     52  C21        3.6650  -22.1340    4.2790 C.3   605  INH605     -0.0602
     53  C22        6.3380  -22.2250    2.5060 C.3   605  INH605     -0.0650
     54  O8         2.1530  -19.0880    5.5740 O.co2 605  INH605     -0.2443
     55  H21        6.5860  -22.3340    1.4400 H     605  INH605      0.0230
     56  H22        7.2480  -21.9740    3.0700 H     605  INH605      0.0230
     57  H23        5.9220  -23.1700    2.8840 H     605  INH605      0.0230
     58  H24        3.4190  -22.5880    3.3080 H     605  INH605      0.0233
     59  H25        4.0850  -22.9010    4.9460 H     605  INH605      0.0233
     60  H26        2.7530  -21.7150    4.7300 H     605  INH605      0.0233
     61  H27        5.8250  -20.1690    2.4650 H     605  INH605      0.0266
     62  H28        4.4940  -21.3600    1.9900 H     605  INH605      0.0266
     63  H29        3.2990  -19.5680    3.4330 H     605  INH605      0.0618
     64  H30        5.4770  -21.1280    4.8400 H     605  INH605      0.0321
     65  H31        5.6480  -18.3820    4.8770 H     605  INH605      0.1496
@<TRIPOS>BOND
     1     1    12    1
     2     1     2    1
     3     1    13    1
     4     1    14    1
     5     2     5    1
     6     2     3    1
     7     2    11    1
     8     3    15   am
     9     3     4    2
    10     5    10    1
    11     5     6    1
    12     5     9    1
    13     6     7   ar
    14     6     8   ar
    15    15    34    1
    16    15    16    1
    17    16    17    1
    18    16    19    1
    19    16    33    1
    20    17    18    2
    21    17    35   am
    22    19    20    1
    23    19    31    1
    24    19    32    1
    25    20    21   ar
    26    20    22   ar
    27    21    23   ar
    28    21    30    1
    29    22    24   ar
    30    22    29    1
    31    23    25   ar
    32    23    28    1
    33    24    25   ar
    34    24    27    1
    35    25    26    1
    36    35    36    1
    37    35    44    1
    38    36    43    1
    39    36    37    1
    40    36    39    1
    41    37    46   am
    42    37    38    2
    43    39    40    1
    44    39    41    1
    45    39    42    1
    46    40    45    1
    47    46    65    1
    48    46    47    1
    49    47    48    1
    50    47    50    1
    51    47    63    1
    52    48    49   ar
    53    48    54   ar
    54    50    64    1
    55    50    52    1
    56    50    51    1
    57    51    53    1
    58    51    61    1
    59    51    62    1
    60    52    59    1
    61    52    60    1
    62    52    58    1
    63    53    56    1
    64    53    57    1
    65    53    55    1
