@<TRIPOS>MOLECULE
/tmp/ewbell/vina_2q3c_2q3c_lig/vina/vina3.pdbqt
 43 43 0 0 0
SMALL
GASTEIGER

@<TRIPOS>ATOM
      1  C5         7.1460  -19.1580    2.6730 C.3   605  INH605      0.1800
      2  N2         5.9580  -20.0280    2.6490 N.am  605  INH605     -0.3460
      3  C2         4.9050  -19.7810    3.4310 C.2   605  INH605      0.2490
      4  O1         4.8580  -18.8180    4.2180 O.2   605  INH605     -0.2710
      5  H15        5.9400  -20.8180    2.0370 H     605  INH605      0.1630
      6  C1         3.7100  -20.7400    3.3390 C.3   605  INH605      0.2840
      7  N1         4.2210  -22.1020    2.9660 N.4   605  INH605     -0.0660
      8  H4         5.1680  -22.0280    2.6500 H     605  INH605      0.2750
      9  H5         4.1830  -22.7020    3.7650 H     605  INH605      0.2750
     10  H6         3.6540  -22.4820    2.2350 H     605  INH605      0.2750
     11  C3         2.9560  -20.8170    4.6680 C.3   605  INH605      0.1520
     12  C4         2.1690  -19.5610    4.9730 C.2   605  INH605      0.1410
     13  O2         1.3100  -19.2020    4.1460 O.2   605  INH605     -0.6500
     14  O3         2.3960  -18.9340    6.0280 O.3   605  INH605     -0.7760
     15  H          1.6960  -18.7410    6.6190 H     605  INH605      0.1670
     16  C6         7.1280  -18.0720    1.5940 C.2   605  INH605      0.2410
     17  O4         6.8110  -18.3390    0.4340 O.2   605  INH605     -0.2710
     18  N3         7.4420  -16.8450    2.0040 N.am  605  INH605     -0.3440
     19  H19        7.6900  -16.7120    2.9640 H     605  INH605      0.1630
     20  C14        7.4430  -15.6850    1.1130 C.3   605  INH605      0.2000
     21  C15        8.8340  -15.4740    0.5320 C.2   605  INH605      0.2430
     22  N4         9.7890  -16.2430    1.0300 N.am  605  INH605     -0.3440
     23  H31        9.5540  -16.9130    1.7350 H     605  INH605      0.1630
     24  O5         9.0350  -14.6280   -0.3330 O.2   605  INH605     -0.2710
     25  C17       11.1680  -16.1460    0.5880 C.3   605  INH605      0.1860
     26  C18       11.4230  -17.3060   -0.3690 C.2   605  INH605      0.1630
     27  O7        12.3470  -17.2940   -1.1960 O.2   605  INH605     -0.6480
     28  O8        10.7250  -18.3150   -0.2670 O.3   605  INH605     -0.7750
     29  H         10.5460  -18.6780    0.5790 H     605  INH605      0.1670
     30  C19       12.1510  -16.1020    1.7820 C.3   605  INH605      0.0140
     31  C21       12.3350  -14.6660    2.2950 C.3   605  INH605      0.0120
     32  C20       11.6250  -17.0000    2.9110 C.3   605  INH605      0.0020
     33  C22       12.3260  -18.3290    3.0620 C.3   605  INH605      0.0050
     34  C16        6.9980  -14.4300    1.8570 C.3   605  INH605      0.1990
     35  O6         8.0810  -13.8680    2.5600 O.3   605  INH605     -0.3980
     36  H20        8.0830  -12.9260    2.4400 H     605  INH605      0.2090
     37  C7         8.4600  -19.9630    2.6440 C.3   605  INH605      0.0730
     38  C8         8.9390  -20.4270    3.9970 C.ar  605  INH605     -0.0560
     39  C9         8.1670  -20.2210    5.1360 C.ar  605  INH605      0.0070
     40  C11        8.6020  -20.6570    6.3910 C.ar  605  INH605      0.0010
     41  C13        9.8190  -21.3170    6.5100 C.ar  605  INH605      0.0000
     42  C12       10.5950  -21.5400    5.3720 C.ar  605  INH605      0.0010
     43  C10       10.1520  -21.0980    4.1260 C.ar  605  INH605      0.0070
@<TRIPOS>BOND
     1    27    26    2
     2    26    28    1
     3    26    25    1
     4    24    21    2
     5    28    29    1
     6    17    16    2
     7    21    22   am
     8    21    20    1
     9    25    22    1
    10    25    30    1
    11    22    23    1
    12    20    34    1
    13    20    18    1
    14    16    18   am
    15    16     1    1
    16    30    31    1
    17    30    32    1
    18    34    35    1
    19    18    19    1
    20     5     2    1
    21    10     7    1
    22    36    35    1
    23    37     1    1
    24    37    38    1
    25     2     1    1
    26     2     3   am
    27     8     7    1
    28    32    33    1
    29     7     6    1
    30     7     9    1
    31     6     3    1
    32     6    11    1
    33     3     4    2
    34    38    43   ar
    35    38    39   ar
    36    43    42   ar
    37    13    12    2
    38    11    12    1
    39    12    14    1
    40    39    40   ar
    41    42    41   ar
    42    14    15    1
    43    40    41   ar
