@<TRIPOS>MOLECULE
/tmp/ewbell/vina_2q3c_2q3c_lig/vina/vina2.pdbqt
 43 43 0 0 0
SMALL
GASTEIGER

@<TRIPOS>ATOM
      1  C5         9.0140  -18.2950    2.9650 C.3   605  INH605      0.1800
      2  N2         9.3030  -19.6280    3.5200 N.am  605  INH605     -0.3460
      3  C2        10.5550  -20.0140    3.7730 C.2   605  INH605      0.2490
      4  O1        11.5430  -19.2890    3.5600 O.2   605  INH605     -0.2710
      5  H15        8.5470  -20.2550    3.7110 H     605  INH605      0.1630
      6  C1        10.7620  -21.4200    4.3530 C.3   605  INH605      0.2840
      7  N1        11.9290  -21.3790    5.2960 N.4   605  INH605     -0.0660
      8  H4        12.6370  -22.0110    4.9780 H     605  INH605      0.2750
      9  H5        12.3010  -20.4510    5.3250 H     605  INH605      0.2750
     10  H6        11.6290  -21.6480    6.2110 H     605  INH605      0.2750
     11  C3         9.5140  -21.9030    5.0970 C.3   605  INH605      0.1520
     12  C4         9.2480  -21.1240    6.3670 C.2   605  INH605      0.1410
     13  O2         8.3040  -20.3140    6.3600 O.2   605  INH605     -0.6500
     14  O3         9.9680  -21.3180    7.3690 O.3   605  INH605     -0.7760
     15  H         10.7210  -21.8700    7.3040 H     605  INH605      0.1670
     16  C6         7.7180  -17.6790    3.5000 C.2   605  INH605      0.2410
     17  O4         7.5780  -17.4490    4.7020 O.2   605  INH605     -0.2710
     18  N3         6.7940  -17.3930    2.5860 N.am  605  INH605     -0.3440
     19  H19        6.9850  -17.6130    1.6290 H     605  INH605      0.1630
     20  C14        5.5120  -16.7730    2.9200 C.3   605  INH605      0.2000
     21  C15        4.4240  -17.8340    3.0010 C.2   605  INH605      0.2430
     22  N4         4.6870  -18.8710    3.7790 N.am  605  INH605     -0.3440
     23  H31        5.5590  -18.9000    4.2700 H     605  INH605      0.1630
     24  O5         3.3820  -17.7190    2.3640 O.2   605  INH605     -0.2710
     25  C17        3.7540  -19.9700    3.9430 C.3   605  INH605      0.1860
     26  C18        2.7690  -19.5720    5.0370 C.2   605  INH605      0.1630
     27  O7         3.1030  -19.4780    6.2280 O.2   605  INH605     -0.6480
     28  O8         1.6210  -19.2690    4.7120 O.3   605  INH605     -0.7750
     29  H          1.2820  -19.5420    3.8820 H     605  INH605      0.1670
     30  C19        4.4850  -21.3050    4.2260 C.3   605  INH605      0.0140
     31  C21        3.7280  -22.4910    3.6090 C.3   605  INH605      0.0120
     32  C20        5.9100  -21.2390    3.6580 C.3   605  INH605      0.0020
     33  C22        6.1020  -21.8930    2.3100 C.3   605  INH605      0.0050
     34  C16        5.1320  -15.7210    1.8810 C.3   605  INH605      0.1990
     35  O6         4.4070  -14.6760    2.4860 O.3   605  INH605     -0.3980
     36  H20        4.9520  -13.9000    2.5350 H     605  INH605      0.2090
     37  C7         9.0510  -18.2830    1.4240 C.3   605  INH605      0.0730
     38  C8        10.1640  -17.4550    0.8320 C.ar  605  INH605     -0.0560
     39  C9        11.0380  -17.9990   -0.1050 C.ar  605  INH605      0.0070
     40  C11       12.0660  -17.2330   -0.6640 C.ar  605  INH605      0.0010
     41  C13       12.2180  -15.9030   -0.2910 C.ar  605  INH605      0.0000
     42  C12       11.3390  -15.3440    0.6370 C.ar  605  INH605      0.0010
     43  C10       10.3190  -16.1190    1.1900 C.ar  605  INH605      0.0070
@<TRIPOS>BOND
     1    40    41   ar
     2    40    39   ar
     3    41    42   ar
     4    39    38   ar
     5    42    43   ar
     6    38    43   ar
     7    38    37    1
     8    37     1    1
     9    19    18    1
    10    34    35    1
    11    34    20    1
    12    33    32    1
    13    24    21    2
    14    35    36    1
    15    18    20    1
    16    18    16   am
    17    20    21    1
    18     1    16    1
    19     1     2    1
    20    21    22   am
    21    16    17    2
    22     2     5    1
    23     2     3   am
    24     4     3    2
    25    31    30    1
    26    32    30    1
    27     3     6    1
    28    22    25    1
    29    22    23    1
    30    29    28    1
    31    25    30    1
    32    25    26    1
    33     6    11    1
    34     6     7    1
    35    28    26    1
    36     8     7    1
    37    26    27    2
    38    11    12    1
    39     7     9    1
    40     7    10    1
    41    13    12    2
    42    12    14    1
    43    15    14    1
