@<TRIPOS>MOLECULE
/tmp/ewbell/vina_2q3c_2q3c_lig/vina/vina1.pdbqt
 43 43 0 0 0
SMALL
GASTEIGER

@<TRIPOS>ATOM
      1  C5         9.3040  -18.0540    2.5100 C.3   605  INH605      0.1800
      2  N2        10.6010  -17.6330    3.0670 N.am  605  INH605     -0.3460
      3  C2        11.3690  -16.7450    2.4340 C.2   605  INH605      0.2490
      4  O1        11.0480  -16.2230    1.3520 O.2   605  INH605     -0.2710
      5  H15       10.9120  -18.0210    3.9350 H     605  INH605      0.1630
      6  C1        12.7040  -16.3650    3.0890 C.3   605  INH605      0.2840
      7  N1        12.4290  -15.3860    4.1940 N.4   605  INH605     -0.0660
      8  H4        11.6090  -15.6660    4.6930 H     605  INH605      0.2750
      9  H5        13.2080  -15.3650    4.8210 H     605  INH605      0.2750
     10  H6        12.2890  -14.4750    3.8060 H     605  INH605      0.2750
     11  C3        13.4160  -17.5960    3.6550 C.3   605  INH605      0.1520
     12  C4        14.7920  -17.2800    4.2020 C.2   605  INH605      0.1410
     13  O2        15.2560  -18.0390    5.0720 O.2   605  INH605     -0.6500
     14  O3        15.4120  -16.2870    3.7690 O.3   605  INH605     -0.7760
     15  H         16.0600  -15.8700    4.3020 H     605  INH605      0.1670
     16  C6         8.1090  -17.3240    3.1290 C.2   605  INH605      0.2410
     17  O4         8.2210  -16.7220    4.1980 O.2   605  INH605     -0.2710
     18  N3         6.9800  -17.3630    2.4250 N.am  605  INH605     -0.3440
     19  H19        6.9710  -17.8750    1.5660 H     605  INH605      0.1630
     20  C14        5.7530  -16.6920    2.8530 C.3   605  INH605      0.2000
     21  C15        4.6100  -17.6950    2.9320 C.2   605  INH605      0.2430
     22  N4         4.8120  -18.7380    3.7210 N.am  605  INH605     -0.3440
     23  H31        5.6760  -18.8080    4.2200 H     605  INH605      0.1630
     24  O5         3.5820  -17.5310    2.2830 O.2   605  INH605     -0.2710
     25  C17        3.8210  -19.7860    3.8840 C.3   605  INH605      0.1860
     26  C18        3.0520  -19.4890    5.1680 C.2   605  INH605      0.1630
     27  O7         3.6130  -19.3930    6.2700 O.2   605  INH605     -0.6480
     28  O8         1.8430  -19.2730    5.0910 O.3   605  INH605     -0.7750
     29  H          1.5290  -18.5220    4.6260 H     605  INH605      0.1670
     30  C19        4.4650  -21.1930    3.8610 C.3   605  INH605      0.0140
     31  C21        3.4020  -22.2860    3.6820 C.3   605  INH605      0.0120
     32  C20        5.4910  -21.2670    2.7200 C.3   605  INH605      0.0020
     33  C22        6.3110  -22.5340    2.6680 C.3   605  INH605      0.0050
     34  C16        5.3870  -15.5660    1.8910 C.3   605  INH605      0.1990
     35  O6         4.5310  -14.6420    2.5220 O.3   605  INH605     -0.3980
     36  H20        4.6580  -14.6840    3.4620 H     605  INH605      0.2090
     37  C7         9.1170  -19.5840    2.5550 C.3   605  INH605      0.0730
     38  C8         9.3200  -20.1990    3.9170 C.ar  605  INH605     -0.0560
     39  C9        10.5180  -20.8280    4.2450 C.ar  605  INH605      0.0070
     40  C11       10.7150  -21.3920    5.5090 C.ar  605  INH605      0.0010
     41  C13        9.7070  -21.3180    6.4630 C.ar  605  INH605      0.0000
     42  C12        8.5080  -20.6780    6.1500 C.ar  605  INH605      0.0010
     43  C10        8.3220  -20.1220    4.8840 C.ar  605  INH605      0.0070
@<TRIPOS>BOND
     1     4     3    2
     2    19    18    1
     3    34    35    1
     4    34    20    1
     5    24    21    2
     6    18    20    1
     7    18    16   am
     8     3     2   am
     9     3     6    1
    10     1    37    1
    11     1     2    1
    12     1    16    1
    13    35    36    1
    14    37    38    1
    15    33    32    1
    16    32    30    1
    17    20    21    1
    18    21    22   am
    19     2     5    1
    20     6    11    1
    21     6     7    1
    22    16    17    2
    23    11    12    1
    24    31    30    1
    25    22    25    1
    26    22    23    1
    27    14    12    1
    28    14    15    1
    29    10     7    1
    30    30    25    1
    31    25    26    1
    32    38    39   ar
    33    38    43   ar
    34     7     8    1
    35     7     9    1
    36    12    13    2
    37    39    40   ar
    38    29    28    1
    39    43    42   ar
    40    28    26    1
    41    26    27    2
    42    40    41   ar
    43    42    41   ar
