@<TRIPOS>MOLECULE
/tmp/ewbell/vina_2q3c_2q3c_lig/vina/vina4.pdbqt
 43 43 0 0 0
SMALL
GASTEIGER

@<TRIPOS>ATOM
      1  C5         7.2750  -18.9190    4.2730 C.3   605  INH605      0.1800
      2  N2         5.9650  -19.5830    4.3910 N.am  605  INH605     -0.3460
      3  C2         5.0890  -19.2200    5.3300 C.2   605  INH605      0.2490
      4  O1         5.3160  -18.3150    6.1530 O.2   605  INH605     -0.2710
      5  H15        5.7290  -20.3190    3.7570 H     605  INH605      0.1630
      6  C1         3.7490  -19.9660    5.3780 C.3   605  INH605      0.2840
      7  N1         2.7510  -19.1060    6.0990 N.4   605  INH605     -0.0660
      8  H4         2.1300  -19.6860    6.6270 H     605  INH605      0.2750
      9  H5         3.2330  -18.4860    6.7180 H     605  INH605      0.2750
     10  H6         2.2270  -18.5740    5.4340 H     605  INH605      0.2750
     11  C3         3.2370  -20.2810    3.9700 C.3   605  INH605      0.1520
     12  C4         2.7180  -19.0570    3.2460 C.2   605  INH605      0.1410
     13  O2         1.4930  -18.8450    3.2760 O.2   605  INH605     -0.6500
     14  O3         3.5220  -18.3070    2.6530 O.3   605  INH605     -0.7760
     15  H          3.4560  -17.3780    2.7530 H     605  INH605      0.1670
     16  C6         7.2320  -17.6290    3.4490 C.2   605  INH605      0.2410
     17  O4         7.7030  -16.5810    3.8910 O.2   605  INH605     -0.2710
     18  N3         6.6880  -17.7360    2.2390 N.am  605  INH605     -0.3440
     19  H19        6.3270  -18.6230    1.9540 H     605  INH605      0.1630
     20  C14        6.5950  -16.6110    1.3080 C.3   605  INH605      0.2000
     21  C15        7.9860  -16.0840    0.9850 C.2   605  INH605      0.2430
     22  N4         8.9660  -16.9720    1.0370 N.am  605  INH605     -0.3440
     23  H31        8.7480  -17.9210    1.2690 H     605  INH605      0.1630
     24  O5         8.1650  -14.9020    0.7110 O.2   605  INH605     -0.2710
     25  C17       10.3470  -16.6150    0.7720 C.3   605  INH605      0.1860
     26  C18       10.8970  -17.6330   -0.2230 C.2   605  INH605      0.1630
     27  O7        11.7950  -17.3520   -1.0300 O.2   605  INH605     -0.6480
     28  O8        10.4780  -18.7890   -0.1710 O.3   605  INH605     -0.7750
     29  H         10.3470  -19.2040    0.6590 H     605  INH605      0.1670
     30  C19       11.1740  -16.5150    2.0760 C.3   605  INH605      0.0140
     31  C21       10.7580  -15.2900    2.9030 C.3   605  INH605      0.0120
     32  C20       10.9830  -17.7960    2.9020 C.3   605  INH605      0.0020
     33  C22       12.2320  -18.6120    3.1320 C.3   605  INH605      0.0050
     34  C16        5.7410  -15.4910    1.8950 C.3   605  INH605      0.1990
     35  O6         4.3840  -15.8670    1.9100 O.3   605  INH605     -0.3980
     36  H20        4.3040  -16.7500    2.2510 H     605  INH605      0.2090
     37  C7         8.3720  -19.8770    3.7680 C.3   605  INH605      0.0730
     38  C8         9.1520  -20.5650    4.8610 C.ar  605  INH605     -0.0560
     39  C9         8.6580  -20.6260    6.1610 C.ar  605  INH605      0.0070
     40  C11        9.3720  -21.2700    7.1750 C.ar  605  INH605      0.0010
     41  C13       10.5920  -21.8700    6.8880 C.ar  605  INH605      0.0000
     42  C12       11.0910  -21.8260    5.5850 C.ar  605  INH605      0.0010
     43  C10       10.3710  -21.1770    4.5820 C.ar  605  INH605      0.0070
@<TRIPOS>BOND
     1    27    26    2
     2    26    28    1
     3    26    25    1
     4    28    29    1
     5    24    21    2
     6    25    22    1
     7    25    30    1
     8    21    22   am
     9    21    20    1
    10    22    23    1
    11    20    34    1
    12    20    18    1
    13    34    35    1
    14    35    36    1
    15    19    18    1
    16    30    32    1
    17    30    31    1
    18    18    16   am
    19    14    15    1
    20    14    12    1
    21    32    33    1
    22    12    13    2
    23    12    11    1
    24    16    17    2
    25    16     1    1
    26     5     2    1
    27    37     1    1
    28    37    38    1
    29    11     6    1
    30     1     2    1
    31     2     3   am
    32    43    38   ar
    33    43    42   ar
    34    38    39   ar
    35     3     6    1
    36     3     4    2
    37     6     7    1
    38    10     7    1
    39    42    41   ar
    40     7     8    1
    41     7     9    1
    42    39    40   ar
    43    41    40   ar
