@<TRIPOS>MOLECULE
/tmp/ewbell/vina_2q3c_2q3c_lig/vina/vina5.pdbqt
 43 43 0 0 0
SMALL
GASTEIGER

@<TRIPOS>ATOM
      1  C5         7.2700  -18.7580    4.2390 C.3   605  INH605      0.1800
      2  N2         5.9770  -19.4500    4.3850 N.am  605  INH605     -0.3460
      3  C2         5.1370  -19.1430    5.3750 C.2   605  INH605      0.2490
      4  O1         5.3850  -18.2710    6.2260 O.2   605  INH605     -0.2710
      5  H15        5.7250  -20.1620    3.7290 H     605  INH605      0.1630
      6  C1         3.8120  -19.9150    5.4480 C.3   605  INH605      0.2840
      7  N1         2.8010  -19.0580    6.1540 N.4   605  INH605     -0.0660
      8  H4         2.5560  -19.4810    7.0270 H     605  INH605      0.2750
      9  H5         3.1910  -18.1520    6.3210 H     605  INH605      0.2750
     10  H6         1.9840  -18.9700    5.5850 H     605  INH605      0.2750
     11  C3         3.3000  -20.2720    4.0510 C.3   605  INH605      0.1520
     12  C4         2.6260  -19.1090    3.3550 C.2   605  INH605      0.1410
     13  O2         3.3470  -18.3240    2.7120 O.2   605  INH605     -0.6500
     14  O3         1.3880  -18.9750    3.4420 O.3   605  INH605     -0.7760
     15  H          0.9890  -18.8410    4.2780 H     605  INH605      0.1670
     16  C6         7.1860  -17.4800    3.4010 C.2   605  INH605      0.2410
     17  O4         8.0370  -16.5960    3.5090 O.2   605  INH605     -0.2710
     18  N3         6.1670  -17.4160    2.5470 N.am  605  INH605     -0.3440
     19  H19        5.5170  -18.1760    2.5200 H     605  INH605      0.1630
     20  C14        5.9540  -16.2820    1.6480 C.3   605  INH605      0.2000
     21  C15        7.1690  -16.0910    0.7510 C.2   605  INH605      0.2430
     22  N4         7.8100  -14.9410    0.8870 N.am  605  INH605     -0.3440
     23  H31        7.4790  -14.2780    1.5590 H     605  INH605      0.1630
     24  O5         7.5050  -16.9580   -0.0490 O.2   605  INH605     -0.2710
     25  C17        8.9760  -14.6080    0.0890 C.3   605  INH605      0.1860
     26  C18       10.2060  -15.0440    0.8780 C.2   605  INH605      0.1630
     27  O7        11.2190  -15.5010    0.3270 O.2   605  INH605     -0.6480
     28  O8        10.2130  -14.8710    2.0970 O.3   605  INH605     -0.7750
     29  H          9.8790  -14.0750    2.4590 H     605  INH605      0.1670
     30  C19        8.9920  -13.1120   -0.3060 C.3   605  INH605      0.0140
     31  C21        8.7820  -12.9350   -1.8170 C.3   605  INH605      0.0120
     32  C20        7.8940  -12.3670    0.4670 C.3   605  INH605      0.0020
     33  C22        8.3830  -11.4250    1.5410 C.3   605  INH605      0.0050
     34  C16        5.6890  -15.0040    2.4390 C.3   605  INH605      0.1990
     35  O6         4.3460  -14.6080    2.2950 O.3   605  INH605     -0.3980
     36  H20        4.3110  -13.7240    1.9500 H     605  INH605      0.2090
     37  C7         8.3810  -19.6980    3.7300 C.3   605  INH605      0.0730
     38  C8         9.1240  -20.4330    4.8170 C.ar  605  INH605     -0.0560
     39  C9        10.3880  -20.9680    4.5820 C.ar  605  INH605      0.0070
     40  C11       11.0850  -21.6420    5.5890 C.ar  605  INH605      0.0010
     41  C13       10.5190  -21.7760    6.8510 C.ar  605  INH605      0.0000
     42  C12        9.2590  -21.2320    7.1020 C.ar  605  INH605      0.0010
     43  C10        8.5710  -20.5650    6.0880 C.ar  605  INH605      0.0070
@<TRIPOS>BOND
     1    31    30    1
     2    30    25    1
     3    30    32    1
     4    24    21    2
     5    25    26    1
     6    25    22    1
     7    27    26    2
     8    32    33    1
     9    21    22   am
    10    21    20    1
    11    26    28    1
    12    22    23    1
    13    20    34    1
    14    20    18    1
    15    36    35    1
    16    28    29    1
    17    35    34    1
    18    19    18    1
    19    18    16   am
    20    13    12    2
    21    12    14    1
    22    12    11    1
    23    16    17    2
    24    16     1    1
    25    14    15    1
    26     5     2    1
    27    37     1    1
    28    37    38    1
    29    11     6    1
    30     1     2    1
    31     2     3   am
    32    39    38   ar
    33    39    40   ar
    34    38    43   ar
    35     3     6    1
    36     3     4    2
    37     6     7    1
    38    10     7    1
    39    40    41   ar
    40    43    42   ar
    41     7     9    1
    42     7     8    1
    43    41    42   ar
