@<TRIPOS>MOLECULE
./ligand/1tok_lig.pdb
 10 9 0 0 0
SMALL
GASTEIGER

@<TRIPOS>ATOM
      1  C1        36.8250   19.4470   -3.8260 C.2   797  INH797      0.3797
      2  O1        36.7530   20.5780   -3.2830 O.co2 797  INH797     -0.2413
      3  O2        36.9220   18.4380   -3.0830 O.co2 797  INH797     -0.2413
      4  C2        36.7050   19.3960   -5.3140 C.2   797  INH797      0.0335
      5  C3        36.4720   18.3330   -6.0920 C.2   797  INH797      0.0335
      6  C4        36.4700   16.9220   -5.6560 C.2   797  INH797      0.3797
      7  O3        35.5520   16.3540   -4.9950 O.co2 797  INH797     -0.2413
      8  O4        37.4690   16.2720   -6.0060 O.co2 797  INH797     -0.2413
      9  H1        36.8220   20.3470   -5.8320 H     797  INH797      0.0692
     10  H2        36.2650   18.5260   -7.1440 H     797  INH797      0.0692
@<TRIPOS>BOND
     1    10     5    1
     2     5     6    1
     3     5     4    2
     4     8     6   ar
     5     9     4    1
     6     6     7   ar
     7     4     1    1
     8     1     2   ar
     9     1     3   ar
