@<TRIPOS>MOLECULE
/tmp/ewbell/vina_1tok_1tok_lig/vina/vina3.pdbqt
 10 9 0 0 0
SMALL
GASTEIGER

@<TRIPOS>ATOM
      1  C2        36.8010   19.2590   -3.8140 C.2   797  INH797      0.0880
      2  C3        36.7700   18.0260   -4.3320 C.2   797  INH797      0.0880
      3  C1        37.1420   20.5430   -4.4970 C.2   797  INH797      0.1650
      4  O1        38.3300   20.6920   -4.8800 O.2   797  INH797     -0.6470
      5  O2        36.3130   21.4460   -4.7730 O.3   797  INH797     -0.7730
      6  H         36.2260   21.7480   -5.6560 H     797  INH797      0.1670
      7  C4        36.8860   17.6830   -5.7640 C.2   797  INH797      0.1650
      8  O4        36.7640   16.4730   -6.0170 O.2   797  INH797     -0.6470
      9  O3        37.1080   18.5010   -6.7040 O.3   797  INH797     -0.7730
     10  H         36.4960   19.1880   -6.8820 H     797  INH797      0.1670
@<TRIPOS>BOND
     1    10     9    1
     2     9     7    1
     3     8     7    2
     4     7     2    1
     5     6     5    1
     6     4     3    2
     7     5     3    1
     8     3     1    1
     9     2     1    2
