@<TRIPOS>MOLECULE
/tmp/ewbell/vina_1tok_1tok_lig/vina/vina4.pdbqt
 10 9 0 0 0
SMALL
GASTEIGER

@<TRIPOS>ATOM
      1  C2        41.6480   20.3200    5.4510 C.2   797  INH797      0.0880
      2  C3        40.6570   19.5880    5.9710 C.2   797  INH797      0.0880
      3  C1        43.0790   20.3800    5.8780 C.2   797  INH797      0.1650
      4  O1        43.9360   19.9310    5.0770 O.2   797  INH797     -0.6470
      5  O2        43.4830   20.9090    6.9440 O.3   797  INH797     -0.7730
      6  H         44.3270   21.3160    6.9740 H     797  INH797      0.1670
      7  C4        40.8040   18.5190    6.9790 C.2   797  INH797      0.1650
      8  O4        40.1430   18.6920    8.0160 O.2   797  INH797     -0.6470
      9  O3        41.5390   17.4950    6.8680 O.3   797  INH797     -0.7730
     10  H         42.3370   17.5420    6.3790 H     797  INH797      0.1670
@<TRIPOS>BOND
     1     4     3    2
     2     1     3    1
     3     1     2    2
     4     3     5    1
     5     2     7    1
     6    10     9    1
     7     9     7    1
     8     5     6    1
     9     7     8    2
