@<TRIPOS>MOLECULE
/tmp/ewbell/vina_1tok_1tok_lig/vina/vina1.pdbqt
 10 9 0 0 0
SMALL
GASTEIGER

@<TRIPOS>ATOM
      1  C2        37.1660   19.0840   -5.4440 C.2   797  INH797      0.0880
      2  C3        36.7170   18.0100   -6.1010 C.2   797  INH797      0.0880
      3  C1        36.7580   19.5840   -4.0960 C.2   797  INH797      0.1650
      4  O1        36.2330   20.7250   -4.0420 O.2   797  INH797     -0.6470
      5  O2        36.8400   18.9180   -3.0340 O.3   797  INH797     -0.7730
      6  H         37.2390   18.0700   -3.0420 H     797  INH797      0.1670
      7  C4        35.8410   16.9570   -5.5490 C.2   797  INH797      0.1650
      8  O4        36.2990   16.3730   -4.5530 O.2   797  INH797     -0.6470
      9  O3        34.7130   16.6160   -6.0130 O.3   797  INH797     -0.7730
     10  H         34.4890   16.8230   -6.8990 H     797  INH797      0.1670
@<TRIPOS>BOND
     1    10     9    1
     2     2     7    1
     3     2     1    2
     4     9     7    1
     5     7     8    2
     6     1     3    1
     7     3     4    2
     8     3     5    1
     9     6     5    1
