@<TRIPOS>MOLECULE
/tmp/ewbell/vina_1tok_1tok_lig/vina/vina5.pdbqt
 10 9 0 0 0
SMALL
GASTEIGER

@<TRIPOS>ATOM
      1  C2        40.7710   19.3720    6.1590 C.2   797  INH797      0.0880
      2  C3        41.6060   20.2270    5.5580 C.2   797  INH797      0.0880
      3  C1        41.1010   18.2670    7.1090 C.2   797  INH797      0.1650
      4  O1        41.1700   18.5610    8.3290 O.2   797  INH797     -0.6470
      5  O2        41.2430   17.0630    6.7810 O.3   797  INH797     -0.7730
      6  H         41.5620   16.8440    5.9270 H     797  INH797      0.1670
      7  C4        43.0440   20.3880    5.8540 C.2   797  INH797      0.1650
      8  O4        43.8050   19.9270    4.9880 O.2   797  INH797     -0.6470
      9  O3        43.5290   20.9260    6.8930 O.3   797  INH797     -0.7730
     10  H         44.4560   20.9440    7.0210 H     797  INH797      0.1670
@<TRIPOS>BOND
     1     8     7    2
     2     2     7    1
     3     2     1    2
     4     7     9    1
     5     6     5    1
     6     1     3    1
     7     5     3    1
     8     9    10    1
     9     3     4    2
