@<TRIPOS>MOLECULE
/tmp/ewbell/vina_1tok_1tok_lig/vina/vina2.pdbqt
 10 9 0 0 0
SMALL
GASTEIGER

@<TRIPOS>ATOM
      1  C2        36.7380   18.0230   -6.0840 C.2   797  INH797      0.0880
      2  C3        37.1900   19.1090   -5.4470 C.2   797  INH797      0.0880
      3  C1        35.8610   16.9360   -5.5560 C.2   797  INH797      0.1650
      4  O1        36.2420   16.3460   -4.5130 O.2   797  INH797     -0.6470
      5  O2        34.7440   16.6230   -6.0380 O.3   797  INH797     -0.7730
      6  H         34.1430   16.1080   -5.5350 H     797  INH797      0.1670
      7  C4        36.7590   19.5750   -4.1130 C.2   797  INH797      0.1650
      8  O4        36.2710   20.7170   -4.0980 O.2   797  INH797     -0.6470
      9  O3        36.8670   18.9240   -3.0330 O.3   797  INH797     -0.7730
     10  H         37.4240   18.1720   -2.9920 H     797  INH797      0.1670
@<TRIPOS>BOND
     1     1     3    1
     2     1     2    2
     3     5     3    1
     4     5     6    1
     5     3     4    2
     6     2     7    1
     7     7     8    2
     8     7     9    1
     9     9    10    1
