@<TRIPOS>MOLECULE
./ligand/1iy7_lig.pdb
 27 27 0 0 0
SMALL
GASTEIGER

@<TRIPOS>ATOM
      1  C1         5.5640   -9.5750   12.5890 C.ar  311  INH311     -0.0453
      2  C2         6.4700   -8.6550   11.9840 C.ar  311  INH311     -0.0585
      3  C3         6.1860   -8.0880   10.7100 C.ar  311  INH311     -0.0615
      4  C4         4.9950   -8.4330   10.0260 C.ar  311  INH311     -0.0617
      5  C5         4.0960   -9.3430   10.6130 C.ar  311  INH311     -0.0615
      6  C6         4.3830   -9.9050   11.8760 C.ar  311  INH311     -0.0585
      7  C7         5.8360  -10.1860   13.9590 C.3   311  INH311     -0.0001
      8  C8         5.3710   -9.3430   15.2250 C.3   311  INH311      0.1346
      9  C9         3.8240   -9.1650   15.2020 C.2   311  INH311      0.3746
     10  O1         3.4260   -7.9600   14.7460 O.co2 311  INH311     -0.2445
     11  O2         3.0340   -9.9880   15.5480 O.co2 311  INH311     -0.2445
     12  N1         5.6840   -9.9530   16.5590 N.3   311  INH311     -0.1659
     13  S1         5.5240   -9.0860   18.0720 S.O2  311  INH311      0.0928
     14  N2         6.5090   -7.7220   18.3080 N.3   311  INH311     -0.1934
     15  O3         5.9080   -9.9330   19.1610 O.2   311  INH311     -0.1415
     16  O4         4.2640   -8.4050   18.0460 O.2   311  INH311     -0.1415
     17  H1         7.3840   -8.3850   12.5000 H     311  INH311      0.0620
     18  H2         6.8840   -7.3900   10.2620 H     311  INH311      0.0618
     19  H3         4.7770   -7.9990    9.0570 H     311  INH311      0.0618
     20  H4         3.1830   -9.6130   10.0950 H     311  INH311      0.0618
     21  H5         3.6820  -10.6070   12.3120 H     311  INH311      0.0620
     22  H6         6.9210  -10.3430   14.0440 H     311  INH311      0.0334
     23  H7         5.3210  -11.1570   13.9980 H     311  INH311      0.0334
     24  H8         5.8580   -8.3580   15.1680 H     311  INH311      0.0598
     25  H9         6.0000  -10.9010   16.5860 H     311  INH311      0.1500
     26  H10        6.4460   -7.2010   19.1590 H     311  INH311      0.1453
     27  H11        7.1520   -7.4400   17.5960 H     311  INH311      0.1453
@<TRIPOS>BOND
     1     1     7    1
     2     1     6   ar
     3     1     2   ar
     4     2    17    1
     5     2     3   ar
     6     3    18    1
     7     3     4   ar
     8     4    19    1
     9     4     5   ar
    10     5    20    1
    11     5     6   ar
    12     6    21    1
    13     7    23    1
    14     7    22    1
    15     7     8    1
    16     8    24    1
    17     8    12    1
    18     8     9    1
    19     9    11   ar
    20     9    10   ar
    21    12    25    1
    22    12    13    1
    23    13    16    2
    24    13    15    2
    25    13    14    1
    26    14    27    1
    27    14    26    1
