@<TRIPOS>MOLECULE
/tmp/ewbell/vina_1iy7_1iy7_lig/vina/vina5.pdbqt
 20 20 0 0 0
SMALL
GASTEIGER

@<TRIPOS>ATOM
      1  C8         5.4230   -8.8460   14.1150 C.3   311  INH311      0.1960
      2  C7         6.3690   -8.9580   12.8420 C.3   311  INH311      0.0750
      3  C1         5.7290   -8.6850   11.4850 C.ar  311  INH311     -0.0560
      4  C6         6.2470   -7.6740   10.6350 C.ar  311  INH311      0.0070
      5  C5         5.6860   -7.4100    9.3670 C.ar  311  INH311      0.0010
      6  C4         4.5800   -8.1540    8.9170 C.ar  311  INH311      0.0000
      7  C3         4.0360   -9.1670    9.7430 C.ar  311  INH311      0.0010
      8  C2         4.6060   -9.4310   11.0210 C.ar  311  INH311      0.0070
      9  N1         6.1030   -8.4610   15.3960 N.3   311  INH311     -0.2880
     10  H9         6.9150   -7.8800   15.3470 H     311  INH311      0.1740
     11  S1         5.5420   -8.9770   16.9730 S.O2  311  INH311      0.3130
     12  O4         6.3280   -8.2900   17.9540 O.2   311  INH311     -0.1830
     13  O3         4.1110   -8.9710   17.0050 O.2   311  INH311     -0.1830
     14  N2         5.9100  -10.5610   17.4620 N.3   311  INH311     -0.3120
     15  H11        5.4440  -10.9620   18.2520 H     311  INH311      0.1700
     16  H10        6.5910  -11.0930   16.9620 H     311  INH311      0.1700
     17  C9         4.7540  -10.2240   14.3980 C.2   311  INH311      0.1640
     18  O2         5.3360  -11.2570   14.5200 O.2   311  INH311     -0.6480
     19  O1         3.4110  -10.1610   14.5040 O.3   311  INH311     -0.7750
     20  H          3.0030   -9.3840   14.8350 H     311  INH311      0.1670
@<TRIPOS>BOND
     1     6     5   ar
     2     6     7   ar
     3     5     4   ar
     4     7     8   ar
     5     4     3   ar
     6     8     3   ar
     7     3     2    1
     8     2     1    1
     9     1    17    1
    10     1     9    1
    11    17    19    1
    12    17    18    2
    13    19    20    1
    14    10     9    1
    15     9    11    1
    16    16    14    1
    17    11    13    2
    18    11    14    1
    19    11    12    2
    20    14    15    1
