@<TRIPOS>MOLECULE
/tmp/ewbell/vina_1iy7_1iy7_lig/vina/vina1.pdbqt
 20 20 0 0 0
SMALL
GASTEIGER

@<TRIPOS>ATOM
      1  C8         5.2320   -9.5440   15.2600 C.3   311  INH311      0.1960
      2  C7         5.3340  -10.5150   14.0050 C.3   311  INH311      0.0750
      3  C1         5.3590   -9.8600   12.6290 C.ar  311  INH311     -0.0560
      4  C6         4.2070   -9.8810   11.8010 C.ar  311  INH311      0.0070
      5  C5         4.1950   -9.2680   10.5290 C.ar  311  INH311      0.0010
      6  C4         5.3480   -8.6190   10.0480 C.ar  311  INH311      0.0000
      7  C3         6.5160   -8.5860   10.8480 C.ar  311  INH311      0.0010
      8  C2         6.5230   -9.2040   12.1310 C.ar  311  INH311      0.0070
      9  N1         5.5220  -10.1720   16.5910 N.3   311  INH311     -0.2880
     10  H9         5.4870  -11.1690   16.6640 H     311  INH311      0.1740
     11  S1         5.9230   -9.2460   18.0230 S.O2  311  INH311      0.3130
     12  O4         6.6350   -8.0790   17.5940 O.2   311  INH311     -0.1830
     13  O3         4.7830   -9.1680   18.8850 O.2   311  INH311     -0.1830
     14  N2         7.1190   -9.8690   19.0560 N.3   311  INH311     -0.3120
     15  H11        7.7610   -9.2500   19.5100 H     311  INH311      0.1700
     16  H10        7.1820  -10.8540   19.2110 H     311  INH311      0.1700
     17  C9         3.7860   -8.9780   15.3740 C.2   311  INH311      0.1640
     18  O2         3.3480   -8.0780   14.7270 O.2   311  INH311     -0.6480
     19  O1         3.0300   -9.6100   16.2950 O.3   311  INH311     -0.7750
     20  H          3.0240  -10.5460   16.3340 H     311  INH311      0.1670
@<TRIPOS>BOND
     1     6     5   ar
     2     6     7   ar
     3     5     4   ar
     4     7     8   ar
     5     4     3   ar
     6     8     3   ar
     7     3     2    1
     8     2     1    1
     9    18    17    2
    10     1    17    1
    11     1     9    1
    12    17    19    1
    13    19    20    1
    14     9    10    1
    15     9    11    1
    16    12    11    2
    17    11    13    2
    18    11    14    1
    19    14    16    1
    20    14    15    1
