@<TRIPOS>MOLECULE
/tmp/ewbell/vina_1iy7_1iy7_lig/vina/vina4.pdbqt
 20 20 0 0 0
SMALL
GASTEIGER

@<TRIPOS>ATOM
      1  C8         5.6180  -10.1420   17.8280 C.3   311  INH311      0.1960
      2  C7         6.7160  -11.1000   18.4640 C.3   311  INH311      0.0750
      3  C1         6.3190  -11.8590   19.7260 C.ar  311  INH311     -0.0560
      4  C6         5.5960  -13.0760   19.6350 C.ar  311  INH311      0.0070
      5  C5         5.2290  -13.8090   20.7840 C.ar  311  INH311      0.0010
      6  C4         5.5730  -13.3340   22.0640 C.ar  311  INH311      0.0000
      7  C3         6.2900  -12.1190   22.1880 C.ar  311  INH311      0.0010
      8  C2         6.6600  -11.3840   21.0260 C.ar  311  INH311      0.0070
      9  N1         5.6750   -9.9920   16.3360 N.3   311  INH311     -0.2880
     10  H9         6.4710  -10.3540   15.8520 H     311  INH311      0.1740
     11  S1         4.4130   -9.2180   15.4000 S.O2  311  INH311      0.3130
     12  O4         3.1870   -9.3650   16.1270 O.2   311  INH311     -0.1830
     13  O3         4.8700   -7.9460   14.9290 O.2   311  INH311     -0.1830
     14  N2         3.9140   -9.9800   13.9660 N.3   311  INH311     -0.3120
     15  H11        4.5770  -10.1610   13.2390 H     311  INH311      0.1700
     16  H10        2.9590  -10.2480   13.8490 H     311  INH311      0.1700
     17  C9         5.7790   -8.7020   18.3970 C.2   311  INH311      0.1640
     18  O2         4.9440   -8.1070   19.0050 O.2   311  INH311     -0.6480
     19  O1         6.9840   -8.1530   18.1440 O.3   311  INH311     -0.7750
     20  H          7.0400   -7.3330   17.6920 H     311  INH311      0.1670
@<TRIPOS>BOND
     1    15    14    1
     2    16    14    1
     3    14    11    1
     4    13    11    2
     5    11    12    2
     6    11     9    1
     7    10     9    1
     8     9     1    1
     9    20    19    1
    10     1    17    1
    11     1     2    1
    12    19    17    1
    13    17    18    2
    14     2     3    1
    15     4     3   ar
    16     4     5   ar
    17     3     8   ar
    18     5     6   ar
    19     8     7   ar
    20     6     7   ar
