@<TRIPOS>MOLECULE
/tmp/ewbell/vina_1iy7_1iy7_lig/vina/vina2.pdbqt
 20 20 0 0 0
SMALL
GASTEIGER

@<TRIPOS>ATOM
      1  C8         5.2750   -9.5660   15.4190 C.3   311  INH311      0.1960
      2  C7         5.4440  -10.5140   14.1530 C.3   311  INH311      0.0750
      3  C1         5.3980   -9.8470   12.7830 C.ar  311  INH311     -0.0560
      4  C6         6.5130   -9.1110   12.3040 C.ar  311  INH311      0.0070
      5  C5         6.5060   -8.4970   11.0330 C.ar  311  INH311      0.0010
      6  C4         5.3720   -8.5990   10.2070 C.ar  311  INH311      0.0000
      7  C3         4.2420   -9.3230   10.6580 C.ar  311  INH311      0.0010
      8  C2         4.2530   -9.9420   11.9400 C.ar  311  INH311      0.0070
      9  N1         5.4430  -10.2300   16.7530 N.3   311  INH311     -0.2880
     10  H9         5.3220  -11.2200   16.8100 H     311  INH311      0.1740
     11  S1         5.8450   -9.3550   18.2170 S.O2  311  INH311      0.3130
     12  O4         4.7310   -8.5100   18.5310 O.2   311  INH311     -0.1830
     13  O3         6.4150  -10.2510   19.1760 O.2   311  INH311     -0.1830
     14  N2         7.0250   -8.1380   18.1090 N.3   311  INH311     -0.3120
     15  H11        7.2810   -7.6150   18.9230 H     311  INH311      0.1700
     16  H10        7.4650   -7.9440   17.2330 H     311  INH311      0.1700
     17  C9         3.8410   -8.9570   15.4350 C.2   311  INH311      0.1640
     18  O2         3.4820   -8.0300   14.7780 O.2   311  INH311     -0.6480
     19  O1         2.9980   -9.5840   16.2800 O.3   311  INH311     -0.7750
     20  H          3.3330  -10.1890   16.9130 H     311  INH311      0.1670
@<TRIPOS>BOND
     1     6     7   ar
     2     6     5   ar
     3     7     8   ar
     4     5     4   ar
     5     8     3   ar
     6     4     3   ar
     7     3     2    1
     8     2     1    1
     9    18    17    2
    10     1    17    1
    11     1     9    1
    12    17    19    1
    13    19    20    1
    14     9    10    1
    15     9    11    1
    16    16    14    1
    17    14    11    1
    18    14    15    1
    19    11    12    2
    20    11    13    2
