@<TRIPOS>MOLECULE
/tmp/ewbell/vina_1iy7_1iy7_lig/vina/vina3.pdbqt
 20 20 0 0 0
SMALL
GASTEIGER

@<TRIPOS>ATOM
      1  C8         5.4660   -9.2350   16.9430 C.3   311  INH311      0.1960
      2  C7         4.6270   -8.9230   15.6280 C.3   311  INH311      0.0750
      3  C1         5.2510   -9.3370   14.3000 C.ar  311  INH311     -0.0560
      4  C6         4.7760  -10.4810   13.6080 C.ar  311  INH311      0.0070
      5  C5         5.3220  -10.8790   12.3690 C.ar  311  INH311      0.0010
      6  C4         6.3710  -10.1400   11.7900 C.ar  311  INH311      0.0000
      7  C3         6.8700   -8.9960   12.4590 C.ar  311  INH311      0.0010
      8  C2         6.3150   -8.5970   13.7080 C.ar  311  INH311      0.0070
      9  N1         6.0310  -10.6220   17.0360 N.3   311  INH311     -0.2880
     10  H9         6.0200  -11.1960   16.2180 H     311  INH311      0.1740
     11  S1         6.7130  -11.2830   18.5080 S.O2  311  INH311      0.3130
     12  O4         7.1140  -10.1800   19.3290 O.2   311  INH311     -0.1830
     13  O3         5.8760  -12.3340   19.0010 O.2   311  INH311     -0.1830
     14  N2         8.2280  -12.0440   18.4020 N.3   311  INH311     -0.3120
     15  H11        8.9460  -11.6540   17.8240 H     311  INH311      0.1700
     16  H10        8.4030  -12.8820   18.9170 H     311  INH311      0.1700
     17  C9         4.5610   -9.0700   18.1990 C.2   311  INH311      0.1640
     18  O2         3.5880   -9.7180   18.4340 O.2   311  INH311     -0.6480
     19  O1         4.9770   -8.1020   19.0400 O.3   311  INH311     -0.7750
     20  H          4.3500   -7.5430   19.4570 H     311  INH311      0.1670
@<TRIPOS>BOND
     1     6     5   ar
     2     6     7   ar
     3     5     4   ar
     4     7     8   ar
     5     4     3   ar
     6     8     3   ar
     7     3     2    1
     8     2     1    1
     9    10     9    1
    10     1     9    1
    11     1    17    1
    12     9    11    1
    13    15    14    1
    14    17    18    2
    15    17    19    1
    16    14    11    1
    17    14    16    1
    18    11    13    2
    19    11    12    2
    20    19    20    1
