@<TRIPOS>MOLECULE
./ligand/1bcj_lig.pdb
 30 30 0 0 0
SMALL
GASTEIGER

@<TRIPOS>ATOM
      1  C1        48.0370   -3.1700   21.2800 C.3   472  INH472      0.1776
      2  C2        46.5930   -3.1570   21.8130 C.3   472  INH472      0.1021
      3  C3        46.5410   -3.9110   23.1570 C.3   472  INH472      0.1065
      4  C4        47.1420   -5.3110   23.0070 C.3   472  INH472      0.1112
      5  C5        48.5440   -5.2160   22.3930 C.3   472  INH472      0.1129
      6  C6        49.1810   -6.5670   22.1330 C.3   472  INH472      0.0730
      7  C7        45.4850   -1.1490   21.0440 C.2   472  INH472      0.2104
      8  C8        45.0800    0.2870   21.3510 C.3   472  INH472      0.0122
      9  N1        46.1600   -1.7860   21.9970 N.am  472  INH472     -0.3053
     10  O1        48.0910   -2.5600   20.0400 O.3   472  INH472     -0.3654
     11  O2        45.2020   -4.0180   23.6140 O.3   472  INH472     -0.3871
     12  O3        46.3060   -6.1070   22.1810 O.3   472  INH472     -0.3865
     13  O4        48.4880   -4.5190   21.1290 O.3   472  INH472     -0.3414
     14  O5        50.5990   -6.4830   22.1910 O.3   472  INH472     -0.3924
     15  O6        45.1780   -1.6630   19.9620 O.2   472  INH472     -0.2761
     16  H1        48.6910   -2.6360   21.9850 H     472  INH472      0.0928
     17  H2        45.9300   -3.6540   21.0900 H     472  INH472      0.0575
     18  H3        47.1270   -3.3490   23.8990 H     472  INH472      0.0640
     19  H4        47.2160   -5.7780   24.0000 H     472  INH472      0.0646
     20  H5        49.1840   -4.6540   23.0900 H     472  INH472      0.0647
     21  H6        48.8820   -6.9190   21.1350 H     472  INH472      0.0584
     22  H7        48.8320   -7.2810   22.8930 H     472  INH472      0.0584
     23  H8        44.5320    0.7050   20.4940 H     472  INH472      0.0322
     24  H9        45.9810    0.8900   21.5390 H     472  INH472      0.0322
     25  H10       44.4350    0.3040   22.2420 H     472  INH472      0.0322
     26  H11       46.3720   -1.3120   22.8520 H     472  INH472      0.1492
     27  H12       47.7950   -1.6610   20.1170 H     472  INH472      0.2125
     28  H13       44.8290   -3.1490   23.7070 H     472  INH472      0.2100
     29  H14       45.4390   -6.1620   22.5670 H     472  INH472      0.2100
     30  H15       50.9740   -7.3400   22.0250 H     472  INH472      0.2095
@<TRIPOS>BOND
     1     1     2    1
     2     1    16    1
     3     1    13    1
     4     1    10    1
     5     2     9    1
     6     2    17    1
     7     2     3    1
     8     3     4    1
     9     3    18    1
    10     3    11    1
    11     4     5    1
    12     4    19    1
    13     4    12    1
    14     5    13    1
    15     5    20    1
    16     5     6    1
    17     6    22    1
    18     6    21    1
    19     6    14    1
    20     7    15    2
    21     7     9   am
    22     7     8    1
    23     8    25    1
    24     8    24    1
    25     8    23    1
    26     9    26    1
    27    10    27    1
    28    11    28    1
    29    12    29    1
    30    14    30    1
