@<TRIPOS>MOLECULE
/tmp/ewbell/vina_1bcj_1bcj_lig/vina/vina2.pdbqt
 20 20 0 0 0
SMALL
GASTEIGER

@<TRIPOS>ATOM
      1  C1        46.6860   -2.9930   19.9200 C.3   472  INH472      0.2820
      2  C2        46.3510   -1.6850   20.6590 C.3   472  INH472      0.1700
      3  C3        47.2220   -1.5800   21.9270 C.3   472  INH472      0.1770
      4  C4        47.0740   -2.8410   22.7820 C.3   472  INH472      0.1800
      5  C5        47.3480   -4.0870   21.9310 C.3   472  INH472      0.1790
      6  O4        46.4690   -4.1110   20.7850 O.3   472  INH472     -0.3490
      7  N1        46.6090   -0.5580   19.7850 N.am  472  INH472     -0.3490
      8  C7        45.6410    0.3000   19.4730 C.2   472  INH472      0.2140
      9  O6        45.8030    1.2700   18.7230 O.2   472  INH472     -0.2740
     10  C8        44.2750    0.0260   20.0870 C.3   472  INH472      0.1170
     11  H11       47.5270   -0.4240   19.4110 H     472  INH472      0.1630
     12  O1        45.8640   -3.1390   18.8180 O.3   472  INH472     -0.3690
     13  H12       46.3600   -3.5180   18.1020 H     472  INH472      0.2120
     14  O2        46.8520   -0.4440   22.6910 O.3   472  INH472     -0.3910
     15  H13       45.9050   -0.4110   22.7710 H     472  INH472      0.2100
     16  O3        45.7620   -2.9040   23.3220 O.3   472  INH472     -0.3900
     17  H14       45.2150   -3.4440   22.7630 H     472  INH472      0.2100
     18  C6        47.1420   -5.3870   22.6830 C.3   472  INH472      0.1980
     19  O5        45.8660   -5.9440   22.3980 O.3   472  INH472     -0.3980
     20  H15       45.4690   -5.4730   21.6740 H     472  INH472      0.2090
@<TRIPOS>BOND
     1    13    12    1
     2     9     8    2
     3    12     1    1
     4    11     7    1
     5     8     7   am
     6     8    10    1
     7     7     2    1
     8     1     2    1
     9     1     6    1
    10     2     3    1
    11     6     5    1
    12    20    19    1
    13     3    14    1
    14     3     4    1
    15     5    18    1
    16     5     4    1
    17    19    18    1
    18    14    15    1
    19    17    16    1
    20     4    16    1
