@<TRIPOS>MOLECULE
/tmp/ewbell/vina_1bcj_1bcj_lig/vina/vina4.pdbqt
 20 20 0 0 0
SMALL
GASTEIGER

@<TRIPOS>ATOM
      1  C1        48.8440   -2.9390   22.3530 C.3   472  INH472      0.2820
      2  C2        47.3090   -3.0490   22.3180 C.3   472  INH472      0.1700
      3  C3        46.8640   -4.2390   23.1920 C.3   472  INH472      0.1770
      4  C4        47.5940   -5.5150   22.7660 C.3   472  INH472      0.1800
      5  C5        49.1090   -5.2740   22.7550 C.3   472  INH472      0.1790
      6  O4        49.4300   -4.1610   21.8930 O.3   472  INH472     -0.3490
      7  N1        46.7270   -1.8200   22.8210 N.am  472  INH472     -0.3490
      8  C7        46.0840   -0.9860   22.0080 C.2   472  INH472      0.2140
      9  O6        45.5800    0.0800   22.3810 O.2   472  INH472     -0.2740
     10  C8        45.9970   -1.4040   20.5460 C.3   472  INH472      0.1170
     11  H11       46.8120   -1.5960   23.7920 H     472  INH472      0.1630
     12  O1        49.2670   -1.9210   21.5180 O.3   472  INH472     -0.3690
     13  H12       48.7850   -1.9620   20.7010 H     472  INH472      0.2120
     14  O2        45.4640   -4.4370   23.0840 O.3   472  INH472     -0.3910
     15  H13       45.0220   -3.9620   23.7790 H     472  INH472      0.2100
     16  O3        47.1590   -5.9100   21.4740 O.3   472  INH472     -0.3900
     17  H14       47.8880   -5.8600   20.8650 H     472  INH472      0.2100
     18  C6        49.9060   -6.4670   22.2650 C.3   472  INH472      0.1980
     19  O5        49.1570   -7.6680   22.3920 O.3   472  INH472     -0.3980
     20  H15       48.9660   -7.8270   23.3100 H     472  INH472      0.2090
@<TRIPOS>BOND
     1    10     8    1
     2    13    12    1
     3    17    16    1
     4    16     4    1
     5    12     1    1
     6     6     1    1
     7     6     5    1
     8     8     9    2
     9     8     7   am
    10    18    19    1
    11    18     5    1
    12     2     1    1
    13     2     7    1
    14     2     3    1
    15    19    20    1
    16     5     4    1
    17     4     3    1
    18     7    11    1
    19    14     3    1
    20    14    15    1
