@<TRIPOS>MOLECULE
/tmp/ewbell/vina_1bcj_1bcj_lig/vina/vina5.pdbqt
 20 20 0 0 0
SMALL
GASTEIGER

@<TRIPOS>ATOM
      1  C1        48.8770   -5.3730   19.7440 C.3   472  INH472      0.2820
      2  C2        48.3330   -4.3650   18.7160 C.3   472  INH472      0.1700
      3  C3        48.0030   -3.0390   19.4310 C.3   472  INH472      0.1770
      4  C4        47.0700   -3.2910   20.6180 C.3   472  INH472      0.1800
      5  C5        47.6660   -4.3670   21.5330 C.3   472  INH472      0.1790
      6  O4        47.9160   -5.5760   20.7830 O.3   472  INH472     -0.3490
      7  N1        49.3290   -4.1400   17.6880 N.am  472  INH472     -0.3490
      8  C7        49.1070   -4.5060   16.4290 C.2   472  INH472      0.2140
      9  O6        49.9260   -4.3490   15.5160 O.2   472  INH472     -0.2740
     10  C8        47.7600   -5.1590   16.1460 C.3   472  INH472      0.1170
     11  H11       50.1970   -3.7040   17.9290 H     472  INH472      0.1630
     12  O1        49.1120   -6.5930   19.1350 O.3   472  INH472     -0.3690
     13  H12       48.3360   -6.8620   18.6580 H     472  INH472      0.2120
     14  O2        47.3890   -2.1300   18.5310 O.3   472  INH472     -0.3910
     15  H13       47.5710   -1.2400   18.8070 H     472  INH472      0.2100
     16  O3        45.7970   -3.7060   20.1490 O.3   472  INH472     -0.3900
     17  H14       45.1460   -3.5580   20.8260 H     472  INH472      0.2100
     18  C6        46.7640   -4.7380   22.6950 C.3   472  INH472      0.1980
     19  O5        45.8230   -5.7320   22.3130 O.3   472  INH472     -0.3980
     20  H15       44.9420   -5.4150   22.4780 H     472  INH472      0.2090
@<TRIPOS>BOND
     1     9     8    2
     2    10     8    1
     3     8     7   am
     4     7    11    1
     5     7     2    1
     6    14    15    1
     7    14     3    1
     8    13    12    1
     9     2     3    1
    10     2     1    1
    11    12     1    1
    12     3     4    1
    13     1     6    1
    14    16     4    1
    15    16    17    1
    16     4     5    1
    17     6     5    1
    18     5    18    1
    19    19    20    1
    20    19    18    1
