@<TRIPOS>MOLECULE
/tmp/ewbell/vina_1bcj_1bcj_lig/vina/vina1.pdbqt
 20 20 0 0 0
SMALL
GASTEIGER

@<TRIPOS>ATOM
      1  C1        39.9710   -8.9940   34.4170 C.3   472  INH472      0.2820
      2  C2        39.5040   -7.5300   34.3100 C.3   472  INH472      0.1700
      3  C3        38.5730   -7.2060   35.4960 C.3   472  INH472      0.1770
      4  C4        37.4330   -8.2240   35.5730 C.3   472  INH472      0.1800
      5  C5        38.0020   -9.6480   35.5910 C.3   472  INH472      0.1790
      6  O4        38.8370   -9.8660   34.4330 O.3   472  INH472     -0.3490
      7  N1        40.6590   -6.6540   34.3330 N.am  472  INH472     -0.3490
      8  C7        40.8700   -5.7770   33.3550 C.2   472  INH472      0.2140
      9  O6        41.8440   -5.0160   33.3180 O.2   472  INH472     -0.2740
     10  C8        39.8350   -5.7530   32.2380 C.3   472  INH472      0.1170
     11  H11       41.3060   -6.7110   35.0940 H     472  INH472      0.1630
     12  O1        40.7500   -9.3250   33.3240 O.3   472  INH472     -0.3690
     13  H12       40.5210  -10.1970   33.0250 H     472  INH472      0.2120
     14  O2        38.0340   -5.9010   35.3600 O.3   472  INH472     -0.3910
     15  H13       37.1590   -5.9570   34.9930 H     472  INH472      0.2100
     16  O3        36.5690   -8.0640   34.4570 O.3   472  INH472     -0.3900
     17  H14       36.1840   -8.9030   34.2320 H     472  INH472      0.2100
     18  C6        36.9340  -10.7240   35.5830 C.3   472  INH472      0.1980
     19  O5        36.3790  -10.8830   34.2850 O.3   472  INH472     -0.3980
     20  H15       36.2890  -10.0310   33.8720 H     472  INH472      0.2090
@<TRIPOS>BOND
     1    10     8    1
     2    13    12    1
     3     9     8    2
     4    12     1    1
     5     8     7   am
     6    20    19    1
     7    17    16    1
     8    19    18    1
     9     2     7    1
    10     2     1    1
    11     2     3    1
    12     7    11    1
    13     1     6    1
    14     6     5    1
    15    16     4    1
    16    15    14    1
    17    14     3    1
    18     3     4    1
    19     4     5    1
    20    18     5    1
