@<TRIPOS>MOLECULE
/tmp/ewbell/vina_1bcj_1bcj_lig/vina/vina3.pdbqt
 20 20 0 0 0
SMALL
GASTEIGER

@<TRIPOS>ATOM
      1  C1        46.7200   -4.8780   22.7950 C.3   472  INH472      0.2820
      2  C2        48.1430   -5.0610   22.2380 C.3   472  INH472      0.1700
      3  C3        49.0630   -3.9750   22.8310 C.3   472  INH472      0.1770
      4  C4        48.4700   -2.5840   22.5930 C.3   472  INH472      0.1800
      5  C5        47.0260   -2.5350   23.1080 C.3   472  INH472      0.1790
      6  O4        46.2380   -3.5690   22.4790 O.3   472  INH472     -0.3490
      7  N1        48.6350   -6.3760   22.5960 N.am  472  INH472     -0.3490
      8  C7        49.1240   -7.1980   21.6700 C.2   472  INH472      0.2140
      9  O6        49.5440   -8.3340   21.9170 O.2   472  INH472     -0.2740
     10  C8        49.1350   -6.6710   20.2410 C.3   472  INH472      0.1170
     11  H11       48.6060   -6.6710   23.5520 H     472  INH472      0.1630
     12  O1        45.8630   -5.7990   22.2200 O.3   472  INH472     -0.3690
     13  H12       45.8920   -6.6090   22.7150 H     472  INH472      0.2120
     14  O2        50.3540   -4.0440   22.2460 O.3   472  INH472     -0.3910
     15  H13       50.2810   -4.3760   21.3580 H     472  INH472      0.2100
     16  O3        48.4980   -2.2800   21.2070 O.3   472  INH472     -0.3900
     17  H14       47.6260   -2.3840   20.8420 H     472  INH472      0.2100
     18  C6        46.3330   -1.2140   22.8370 C.3   472  INH472      0.1980
     19  O5        45.7510   -1.2000   21.5410 O.3   472  INH472     -0.3980
     20  H15       46.3420   -0.7700   20.9320 H     472  INH472      0.2090
@<TRIPOS>BOND
     1    10     8    1
     2    17    16    1
     3    20    19    1
     4    16     4    1
     5    15    14    1
     6    19    18    1
     7     8     9    2
     8     8     7   am
     9    12    13    1
    10    12     1    1
    11     2     7    1
    12     2     1    1
    13     2     3    1
    14    14     3    1
    15     6     1    1
    16     6     5    1
    17     4     3    1
    18     4     5    1
    19     7    11    1
    20    18     5    1
