@<TRIPOS>MOLECULE
./ligand/2j2u_lig.pdb
 53 56 0 0 0
SMALL
GASTEIGER

@<TRIPOS>ATOM
      1 Cl1        13.9850    7.5280   26.1870 Cl    288  INH288     -0.0835
      2  C1        12.2480    7.6990   26.1510 C.ar  288  INH288      0.0417
      3  C2        11.4930    7.1820   27.2330 C.ar  288  INH288     -0.0414
      4  C3        10.0900    7.2970   27.1870 C.ar  288  INH288     -0.0364
      5  C4         9.4790    7.9410   26.0830 C.ar  288  INH288      0.0480
      6  N1         8.1520    8.1990   25.7840 N.ar  288  INH288     -0.3388
      7  C5        10.2540    8.4820   24.9880 C.ar  288  INH288      0.0030
      8  C6        11.6420    8.3570   25.0530 C.ar  288  INH288     -0.0342
      9  C7         9.3720    9.0700   24.0370 C.ar  288  INH288     -0.0093
     10  C8         8.1090    8.8410   24.5920 C.ar  288  INH288      0.1731
     11  S1         6.5310    9.2820   24.0070 S.O2  288  INH288      0.0745
     12  O1         5.6650    9.1730   25.1390 O.2   288  INH288     -0.1516
     13  O2         6.6080   10.5090   23.2790 O.2   288  INH288     -0.1516
     14  N2         6.0030    8.2680   22.8500 N.3   288  INH288     -0.1767
     15  C9         6.1900    6.8190   22.8420 C.3   288  INH288      0.1064
     16  C10        7.0710    6.2480   21.7330 C.2   288  INH288      0.2349
     17  O3         8.1360    6.7260   21.3350 O.2   288  INH288     -0.2738
     18  C11        4.8490    6.0750   22.7180 C.3   288  INH288     -0.0116
     19  C12        5.0510    5.0650   21.5780 C.3   288  INH288      0.0174
     20  N3         6.4880    5.1170   21.2860 N.am  288  INH288     -0.2888
     21  C13        7.2540    4.0430   20.6140 C.3   288  INH288      0.0996
     22  C14        6.9970    2.7010   21.3190 C.3   288  INH288     -0.0379
     23  C15        7.0000    3.8700   19.1120 C.2   288  INH288      0.2360
     24  O4         5.8610    4.0100   18.6740 O.2   288  INH288     -0.2736
     25  N4         8.0520    3.5530   18.2950 N.am  288  INH288     -0.2956
     26  C16        9.2600    2.7890   18.6630 C.3   288  INH288      0.0382
     27  C17        9.6150    1.6910   17.6480 C.3   288  INH288      0.0635
     28  O5         9.6060    2.2560   16.3370 O.3   288  INH288     -0.3767
     29  C18        8.3310    2.7880   15.9710 C.3   288  INH288      0.0635
     30  C19        8.0200    3.9780   16.8890 C.3   288  INH288      0.0382
     31  H1        11.9840    6.7090   28.0760 H     288  INH288      0.0633
     32  H2         9.4820    6.8960   27.9900 H     288  INH288      0.0639
     33  H3         7.3400    7.9470   26.3660 H     288  INH288      0.1672
     34  H4        12.2590    8.7650   24.2600 H     288  INH288      0.0639
     35  H5         9.6200    9.5750   23.1050 H     288  INH288      0.0659
     36  H6         5.5090    8.6700   22.0790 H     288  INH288      0.1489
     37  H7         6.6520    6.5580   23.8050 H     288  INH288      0.0573
     38  H8         4.0400    6.7780   22.4710 H     288  INH288      0.0301
     39  H9         4.6090    5.5540   23.6570 H     288  INH288      0.0301
     40  H10        4.4650    5.3550   20.6940 H     288  INH288      0.0465
     41  H11        4.7560    4.0550   21.8980 H     288  INH288      0.0465
     42  H12        8.3190    4.2930   20.7310 H     288  INH288      0.0594
     43  H13        7.5680    1.9070   20.8160 H     288  INH288      0.0252
     44  H14        5.9240    2.4640   21.2760 H     288  INH288      0.0252
     45  H15        7.3150    2.7720   22.3700 H     288  INH288      0.0252
     46  H16        9.0910    2.3180   19.6420 H     288  INH288      0.0487
     47  H17       10.1070    3.4870   18.7330 H     288  INH288      0.0487
     48  H18        8.8740    0.8800   17.7060 H     288  INH288      0.0575
     49  H19       10.6150    1.2910   17.8710 H     288  INH288      0.0575
     50  H20        7.5580    2.0150   16.0910 H     288  INH288      0.0575
     51  H21        8.3550    3.1230   14.9240 H     288  INH288      0.0575
     52  H22        8.7710    4.7660   16.7300 H     288  INH288      0.0487
     53  H23        7.0210    4.3700   16.6500 H     288  INH288      0.0487
@<TRIPOS>BOND
     1     1     2    1
     2     2     8   ar
     3     2     3   ar
     4     3    31    1
     5     3     4   ar
     6     4    32    1
     7     4     5   ar
     8     5     7   ar
     9     5     6   ar
    10     6    33    1
    11     6    10   ar
    12     7     9   ar
    13     7     8   ar
    14     8    34    1
    15     9    10   ar
    16     9    35    1
    17    10    11    1
    18    11    14    1
    19    11    13    2
    20    11    12    2
    21    14    36    1
    22    14    15    1
    23    15    37    1
    24    15    18    1
    25    15    16    1
    26    16    20   am
    27    16    17    2
    28    18    19    1
    29    18    39    1
    30    18    38    1
    31    19    20    1
    32    19    41    1
    33    19    40    1
    34    20    21    1
    35    21    42    1
    36    21    23    1
    37    21    22    1
    38    22    45    1
    39    22    44    1
    40    22    43    1
    41    23    25   am
    42    23    24    2
    43    25    30    1
    44    25    26    1
    45    26    47    1
    46    26    46    1
    47    26    27    1
    48    27    49    1
    49    27    48    1
    50    27    28    1
    51    28    29    1
    52    29    51    1
    53    29    50    1
    54    29    30    1
    55    30    53    1
    56    30    52    1
