@<TRIPOS>MOLECULE
/tmp/ewbell/vina_2j2u_2j2u_lig/vina/vina2.pdbqt
 32 35 0 0 0
SMALL
GASTEIGER

@<TRIPOS>ATOM
      1  C9         6.3290    7.0840   22.4430 C.3   288  INH288      0.1860
      2  C10        6.8760    6.2550   21.2830 C.2   288  INH288      0.2440
      3  O3         7.8760    6.5200   20.6110 O.2   288  INH288     -0.2710
      4  C11        4.9180    6.5300   22.7060 C.3   288  INH288      0.0550
      5  C12        4.7500    5.3640   21.7200 C.3   288  INH288      0.1290
      6  N3         6.0850    5.1710   21.1430 N.am  288  INH288     -0.3370
      7  N2         6.3140    8.5330   22.2630 N.3   288  INH288     -0.3000
      8  H6         5.9790    8.8820   21.3870 H     288  INH288      0.1730
      9  S1         6.7970    9.6270   23.3660 S.O2  288  INH288      0.2750
     10  O2         7.0430   10.7630   22.5330 O.2   288  INH288     -0.1990
     11  O1         5.8150    9.6960   24.4010 O.2   288  INH288     -0.1990
     12  C8         8.2690    9.1480   24.1610 C.ar  288  INH288      0.1500
     13  N1         8.1310    8.4580   25.3190 N.ar  288  INH288     -0.3450
     14  C4         9.3970    8.1760   25.8010 C.ar  288  INH288      0.0430
     15  H3         7.2410    8.1930   25.7640 H     288  INH288      0.1670
     16  C3         9.8350    7.4830   26.9570 C.ar  288  INH288      0.0320
     17  C5        10.3290    8.7520   24.8560 C.ar  288  INH288     -0.0050
     18  C2        11.2150    7.3520   27.2060 C.ar  288  INH288      0.0260
     19  C1        12.1240    7.9030   26.2700 C.ar  288  INH288      0.0350
     20 Cl1        13.8360    7.7140   26.5560 Cl    288  INH288     -0.0840
     21  C6        11.6910    8.6100   25.1210 C.ar  288  INH288      0.0370
     22  C7         9.6000    9.3850   23.8090 C.ar  288  INH288      0.0570
     23  C13        6.5590    3.9210   20.5070 C.3   288  INH288      0.1750
     24  C14        6.0020    2.7070   21.2670 C.3   288  INH288      0.0420
     25  C15        6.2430    3.7590   19.0150 C.2   288  INH288      0.2420
     26  N4         7.1450    3.1130   18.2140 N.am  288  INH288     -0.3460
     27  C19        8.3850    2.5910   18.8060 C.3   288  INH288      0.1520
     28  C16        7.0310    2.8790   16.7610 C.3   288  INH288      0.1520
     29  C18        9.5960    3.0530   17.9850 C.3   288  INH288      0.1870
     30  O5         9.4240    2.6090   16.6370 O.3   288  INH288     -0.3880
     31  C17        8.3120    3.2280   15.9880 C.3   288  INH288      0.1870
     32  O4         5.1860    4.2010   18.5730 O.2   288  INH288     -0.2710
@<TRIPOS>BOND
     1    31    30    1
     2    31    28    1
     3    30    29    1
     4    28    26    1
     5    29    27    1
     6    26    27    1
     7    26    25   am
     8    32    25    2
     9    25    23    1
    10    23     6    1
    11    23    24    1
    12     3     2    2
    13     6     2   am
    14     6     5    1
    15     2     1    1
    16     8     7    1
    17     5     4    1
    18     7     1    1
    19     7     9    1
    20     1     4    1
    21    10     9    2
    22     9    12    1
    23     9    11    2
    24    22    12   ar
    25    22    17   ar
    26    12    13   ar
    27    17    21   ar
    28    17    14   ar
    29    21    19   ar
    30    13    15    1
    31    13    14   ar
    32    14    16   ar
    33    19    20    1
    34    19    18   ar
    35    16    18   ar
