@<TRIPOS>MOLECULE
/tmp/ewbell/vina_2j2u_2j2u_lig/vina/vina3.pdbqt
 32 35 0 0 0
SMALL
GASTEIGER

@<TRIPOS>ATOM
      1  C9         4.6280    8.9800   17.2890 C.3   288  INH288      0.1860
      2  C10        5.5810    9.0590   18.4790 C.2   288  INH288      0.2440
      3  O3         6.6480    8.4500   18.5960 O.2   288  INH288     -0.2710
      4  C11        3.3210    9.6320   17.7720 C.3   288  INH288      0.0550
      5  C12        3.6130   10.1100   19.2030 C.3   288  INH288      0.1290
      6  N3         5.0600    9.9300   19.3670 N.am  288  INH288     -0.3370
      7  N2         4.3920    7.6530   16.7250 N.3   288  INH288     -0.3000
      8  H6         3.6560    7.1090   17.1280 H     288  INH288      0.1730
      9  S1         5.2260    6.9870   15.4970 S.O2  288  INH288      0.2750
     10  O2         4.1640    6.4400   14.7120 O.2   288  INH288     -0.1990
     11  O1         6.0900    7.9790   14.9410 O.2   288  INH288     -0.1990
     12  C8         6.2780    5.7110   16.0380 C.ar  288  INH288      0.1500
     13  N1         6.7910    5.8420   17.2850 N.ar  288  INH288     -0.3450
     14  C4         7.6010    4.7470   17.5320 C.ar  288  INH288      0.0430
     15  H3         6.6120    6.6200   17.9360 H     288  INH288      0.1670
     16  C3         8.3690    4.3750   18.6620 C.ar  288  INH288      0.0320
     17  C5         7.5570    3.9330   16.3350 C.ar  288  INH288     -0.0050
     18  C2         9.1200    3.1840   18.6290 C.ar  288  INH288      0.0260
     19  C1         9.0620    2.3820   17.4630 C.ar  288  INH288      0.0350
     20 Cl1         9.9630    0.8880   17.4300 Cl    288  INH288     -0.0840
     21  C6         8.3080    2.7580   16.3240 C.ar  288  INH288      0.0370
     22  C7         6.7150    4.5620   15.3740 C.ar  288  INH288      0.0570
     23  C13        5.8930   10.6440   20.3600 C.3   288  INH288      0.1750
     24  C14        5.6870   12.1610   20.2190 C.3   288  INH288      0.0420
     25  C15        5.6840   10.2510   21.8270 C.2   288  INH288      0.2420
     26  N4         6.7570    9.8040   22.5520 N.am  288  INH288     -0.3460
     27  C19        8.0740    9.7200   21.9040 C.3   288  INH288      0.1520
     28  C16        6.7520    9.3610   23.9590 C.3   288  INH288      0.1520
     29  C18        8.6910    8.3350   22.1440 C.3   288  INH288      0.1870
     30  O5         8.7760    8.1160   23.5540 O.3   288  INH288     -0.3880
     31  C17        7.4960    8.0350   24.1810 C.3   288  INH288      0.1870
     32  O4         4.5660   10.3530   22.3240 O.2   288  INH288     -0.2710
@<TRIPOS>BOND
     1    10     9    2
     2    11     9    2
     3    22    12   ar
     4    22    17   ar
     5     9    12    1
     6     9     7    1
     7    12    13   ar
     8    21    17   ar
     9    21    19   ar
    10    17    14   ar
    11     7     8    1
    12     7     1    1
    13    13    14   ar
    14    13    15    1
    15     1     4    1
    16     1     2    1
    17    20    19    1
    18    19    18   ar
    19    14    16   ar
    20     4     5    1
    21     2     3    2
    22     2     6   am
    23    18    16   ar
    24     5     6    1
    25     6    23    1
    26    24    23    1
    27    23    25    1
    28    25    32    2
    29    25    26   am
    30    27    29    1
    31    27    26    1
    32    29    30    1
    33    26    28    1
    34    30    31    1
    35    28    31    1
