@<TRIPOS>MOLECULE
/tmp/ewbell/vina_2j2u_2j2u_lig/vina/vina1.pdbqt
 32 35 0 0 0
SMALL
GASTEIGER

@<TRIPOS>ATOM
      1  C9         5.2260    7.3190   22.9920 C.3   288  INH288      0.1860
      2  C10        6.6560    7.8330   22.8390 C.2   288  INH288      0.2440
      3  O3         7.5820    7.2440   22.2770 O.2   288  INH288     -0.2710
      4  C11        4.5740    8.2390   24.0390 C.3   288  INH288      0.0550
      5  C12        5.6500    9.2780   24.3890 C.3   288  INH288      0.1290
      6  N3         6.7160    9.0550   23.4070 N.am  288  INH288     -0.3370
      7  N2         5.0700    5.9090   23.3420 N.3   288  INH288     -0.3000
      8  H6         5.3410    5.6340   24.2650 H     288  INH288      0.1730
      9  S1         4.4940    4.7500   22.3570 S.O2  288  INH288      0.2750
     10  O2         4.0730    3.7700   23.3090 O.2   288  INH288     -0.1990
     11  O1         3.5440    5.3380   21.4670 O.2   288  INH288     -0.1990
     12  C8         5.7340    4.0860   21.3330 C.ar  288  INH288      0.1500
     13  N1         6.3890    4.9630   20.5350 N.ar  288  INH288     -0.3450
     14  C4         7.3220    4.2550   19.7970 C.ar  288  INH288      0.0430
     15  H3         6.2220    5.9780   20.4840 H     288  INH288      0.1670
     16  C3         8.2680    4.6660   18.8260 C.ar  288  INH288      0.0320
     17  C5         7.1860    2.8700   20.1950 C.ar  288  INH288     -0.0050
     18  C2         9.1000    3.7060   18.2190 C.ar  288  INH288      0.0260
     19  C1         8.9760    2.3530   18.6230 C.ar  288  INH288      0.0350
     20 Cl1        10.0300    1.1650   17.8990 Cl    288  INH288     -0.0840
     21  C6         8.0210    1.9360   19.5820 C.ar  288  INH288      0.0370
     22  C7         6.1580    2.7640   21.1730 C.ar  288  INH288      0.0570
     23  C13        7.7370   10.0570   23.0240 C.3   288  INH288      0.1750
     24  C14        9.0320    9.8070   23.8150 C.3   288  INH288      0.0420
     25  C15        8.0770   10.1410   21.5320 C.2   288  INH288      0.2420
     26  N4         7.1510   10.6680   20.6710 N.am  288  INH288     -0.3460
     27  C19        5.8660   11.1410   21.2040 C.3   288  INH288      0.1520
     28  C16        7.2830   10.8120   19.2090 C.3   288  INH288      0.1520
     29  C18        4.7080   10.5420   20.3930 C.3   288  INH288      0.1870
     30  O5         4.8810   10.9060   19.0220 O.3   288  INH288     -0.3880
     31  C17        6.0470   10.3250   18.4370 C.3   288  INH288      0.1870
     32  O4         9.1710    9.7450   21.1400 O.2   288  INH288     -0.2710
@<TRIPOS>BOND
     1    20    19    1
     2    18    19   ar
     3    18    16   ar
     4    31    30    1
     5    31    28    1
     6    19    21   ar
     7    16    14   ar
     8    30    29    1
     9    28    26    1
    10    21    17   ar
    11    14    17   ar
    12    14    13   ar
    13    17    22   ar
    14    29    27    1
    15    15    13    1
    16    13    12   ar
    17    26    27    1
    18    26    25   am
    19    32    25    2
    20    22    12   ar
    21    12     9    1
    22    11     9    2
    23    25    23    1
    24     3     2    2
    25     9    10    2
    26     9     7    1
    27     2     1    1
    28     2     6   am
    29     1     7    1
    30     1     4    1
    31    23     6    1
    32    23    24    1
    33     7     8    1
    34     6     5    1
    35     4     5    1
