@<TRIPOS>MOLECULE
/tmp/ewbell/vina_2j2u_2j2u_lig/vina/vina4.pdbqt
 32 35 0 0 0
SMALL
GASTEIGER

@<TRIPOS>ATOM
      1  C9         2.7840    6.4880   22.3420 C.3   288  INH288      0.1860
      2  C10        4.0750    7.2440   22.6460 C.2   288  INH288      0.2440
      3  O3         5.0630    7.3150   21.9110 O.2   288  INH288     -0.2710
      4  C11        2.0290    6.4200   23.6810 C.3   288  INH288      0.0550
      5  C12        2.9020    7.1990   24.6770 C.3   288  INH288      0.1290
      6  N3         3.9320    7.8370   23.8490 N.am  288  INH288     -0.3370
      7  N2         2.9240    5.1660   21.7360 N.3   288  INH288     -0.3000
      8  H6         2.4230    4.9960   20.8880 H     288  INH288      0.1730
      9  S1         3.8280    3.9480   22.3260 S.O2  288  INH288      0.2750
     10  O2         4.2500    4.5030   23.5730 O.2   288  INH288     -0.1990
     11  O1         3.0490    2.7500   22.3020 O.2   288  INH288     -0.1990
     12  C8         5.2120    3.6170   21.3260 C.ar  288  INH288      0.1500
     13  N1         5.6930    4.6550   20.6010 N.ar  288  INH288     -0.3450
     14  C4         6.7770    4.2010   19.8700 C.ar  288  INH288      0.0430
     15  H3         5.3180    5.6150   20.5920 H     288  INH288      0.1670
     16  C3         7.6470    4.8550   18.9630 C.ar  288  INH288      0.0320
     17  C5         6.9230    2.7970   20.1930 C.ar  288  INH288     -0.0050
     18  C2         8.6820    4.1250   18.3460 C.ar  288  INH288      0.0260
     19  C1         8.8320    2.7560   18.6770 C.ar  288  INH288      0.0350
     20 Cl1        10.1350    1.8560   17.9420 Cl    288  INH288     -0.0840
     21  C6         7.9560    2.0940   19.5710 C.ar  288  INH288      0.0370
     22  C7         5.9090    2.4240   21.1190 C.ar  288  INH288      0.0570
     23  C13        4.7150    9.0290   24.2430 C.3   288  INH288      0.1750
     24  C14        4.0980    9.6660   25.4980 C.3   288  INH288      0.0420
     25  C15        6.2120    8.8050   24.4860 C.2   288  INH288      0.2420
     26  N4         7.1170    9.4560   23.6920 N.am  288  INH288     -0.3460
     27  C19        6.6280   10.3520   22.6350 C.3   288  INH288      0.1520
     28  C16        8.5880    9.3530   23.7560 C.3   288  INH288      0.1520
     29  C18        7.3070   10.0130   21.3000 C.3   288  INH288      0.1870
     30  O5         8.7220   10.1180   21.4740 O.3   288  INH288     -0.3880
     31  C17        9.2420    9.1470   22.3810 C.3   288  INH288      0.1870
     32  O4         6.5690    8.0570   25.3920 O.2   288  INH288     -0.2710
@<TRIPOS>BOND
     1    20    19    1
     2    18    19   ar
     3    18    16   ar
     4    19    21   ar
     5    16    14   ar
     6    21    17   ar
     7    14    17   ar
     8    14    13   ar
     9    17    22   ar
    10    15    13    1
    11    13    12   ar
    12     8     7    1
    13    22    12   ar
    14    29    30    1
    15    29    27    1
    16    12     9    1
    17    30    31    1
    18     7     9    1
    19     7     1    1
    20     3     2    2
    21    11     9    2
    22     9    10    2
    23     1     2    1
    24     1     4    1
    25    31    28    1
    26    27    26    1
    27     2     6   am
    28     4     5    1
    29    26    28    1
    30    26    25   am
    31     6    23    1
    32     6     5    1
    33    23    25    1
    34    23    24    1
    35    25    32    2
