@<TRIPOS>MOLECULE
/tmp/ewbell/vina_2j2u_2j2u_lig/vina/vina5.pdbqt
 32 35 0 0 0
SMALL
GASTEIGER

@<TRIPOS>ATOM
      1  C9         5.7150    9.8260   19.9860 C.3   288  INH288      0.1860
      2  C10        5.8710    9.7900   18.4680 C.2   288  INH288      0.2440
      3  O3         6.0230    8.7790   17.7780 O.2   288  INH288     -0.2710
      4  C11        5.9030   11.3020   20.3790 C.3   288  INH288      0.0550
      5  C12        6.0970   12.0510   19.0520 C.3   288  INH288      0.1290
      6  N3         5.7890   11.0580   18.0160 N.am  288  INH288     -0.3370
      7  N2         6.5920    8.9480   20.7570 N.3   288  INH288     -0.3000
      8  H6         7.5380    9.2450   20.8860 H     288  INH288      0.1730
      9  S1         6.1600    7.5260   21.4200 S.O2  288  INH288      0.2750
     10  O2         6.7150    7.6590   22.7300 O.2   288  INH288     -0.1990
     11  O1         4.7510    7.3550   21.2530 O.2   288  INH288     -0.1990
     12  C8         6.8880    6.1750   20.6020 C.ar  288  INH288      0.1500
     13  N1         6.5810    4.9450   21.0790 N.ar  288  INH288     -0.3450
     14  C4         7.2540    4.0090   20.3140 C.ar  288  INH288      0.0430
     15  H3         5.9570    4.7410   21.8730 H     288  INH288      0.1670
     16  C3         7.2900    2.5940   20.3680 C.ar  288  INH288      0.0320
     17  C5         8.0100    4.7570   19.3310 C.ar  288  INH288     -0.0050
     18  C2         8.0880    1.8850   19.4490 C.ar  288  INH288      0.0260
     19  C1         8.8140    2.6190   18.4790 C.ar  288  INH288      0.0350
     20 Cl1         9.7760    1.7430   17.3140 Cl    288  INH288     -0.0840
     21  C6         8.7920    4.0340   18.4300 C.ar  288  INH288      0.0370
     22  C7         7.7810    6.1480   19.5270 C.ar  288  INH288      0.0570
     23  C13        5.3870   11.3810   16.6280 C.3   288  INH288      0.1750
     24  C14        4.8930   12.8340   16.5540 C.3   288  INH288      0.0420
     25  C15        6.4530   11.1640   15.5480 C.2   288  INH288      0.2420
     26  N4         6.1850   10.3040   14.5170 N.am  288  INH288     -0.3460
     27  C19        4.8850    9.6200   14.4740 C.3   288  INH288      0.1520
     28  C16        7.0850    9.9510   13.4020 C.3   288  INH288      0.1520
     29  C18        5.0900    8.1130   14.2680 C.3   288  INH288      0.1870
     30  O5         5.8330    7.9180   13.0620 O.3   288  INH288     -0.3880
     31  C17        7.1600    8.4380   13.1390 C.3   288  INH288      0.1870
     32  O4         7.5170   11.7720   15.6220 O.2   288  INH288     -0.2710
@<TRIPOS>BOND
     1    30    31    1
     2    30    29    1
     3    31    28    1
     4    28    26    1
     5    29    27    1
     6    27    26    1
     7    26    25   am
     8    25    32    2
     9    25    23    1
    10    24    23    1
    11    23     6    1
    12    20    19    1
    13     3     2    2
    14     6     2   am
    15     6     5    1
    16    21    19   ar
    17    21    17   ar
    18     2     1    1
    19    19    18   ar
    20     5     4    1
    21    17    22   ar
    22    17    14   ar
    23    18    16   ar
    24    22    12   ar
    25     1     4    1
    26     1     7    1
    27    14    16   ar
    28    14    13   ar
    29    12    13   ar
    30    12     9    1
    31     7     8    1
    32     7     9    1
    33    13    15    1
    34    11     9    2
    35     9    10    2
