@<TRIPOS>MOLECULE
./ligand/2pzv_lig.pdb
 13 13 0 0 0
SMALL
GASTEIGER

@<TRIPOS>ATOM
      1  C1        -2.8470   -0.0690   -5.4830 C.ar  255  INH255     -0.0615
      2  C2        -2.0410   -1.2130   -5.2530 C.ar  255  INH255     -0.0583
      3  C3        -2.9380    0.9730   -4.5250 C.ar  255  INH255     -0.0583
      4  C4        -1.3700   -1.3040   -4.0320 C.ar  255  INH255     -0.0202
      5  C5        -2.2680    0.8670   -3.3090 C.ar  255  INH255     -0.0202
      6  C6        -1.4640   -0.2660   -3.1080 C.ar  255  INH255      0.1169
      7  O1        -0.7690   -0.4610   -1.9490 O.3   255  INH255     -0.5068
      8  H1        -3.4020    0.0100   -6.4060 H     255  INH255      0.0618
      9  H2        -1.9490   -1.9890   -5.9980 H     255  INH255      0.0619
     10  H3        -3.5290    1.8510   -4.7390 H     255  INH255      0.0619
     11  H4        -0.7790   -2.1780   -3.8040 H     255  INH255      0.0654
     12  H5        -2.3630    1.6280   -2.5490 H     255  INH255      0.0654
     13  H6        -1.1300   -1.2060   -1.4840 H     255  INH255      0.2921
@<TRIPOS>BOND
     1     1     8    1
     2     1     3   ar
     3     1     2   ar
     4     2     9    1
     5     2     4   ar
     6     3     5   ar
     7     3    10    1
     8     4    11    1
     9     4     6   ar
    10     5     6   ar
    11     5    12    1
    12     6     7    1
    13     7    13    1
