@<TRIPOS>MOLECULE
/tmp/ewbell/vina_2pzv_2pzv_lig/vina/vina3.pdbqt
 8 8 0 0 0
SMALL
GASTEIGER

@<TRIPOS>ATOM
      1  C1        -3.4040    1.2520   -4.7370 C.ar  255  INH255      0.0000
      2  C2        -2.6970    0.4600   -3.7960 C.ar  255  INH255      0.0030
      3  C3        -3.4520    0.8970   -6.1100 C.ar  255  INH255      0.0030
      4  C4        -2.0120   -0.6610   -4.2700 C.ar  255  INH255      0.0360
      5  C5        -2.7590   -0.2190   -6.5700 C.ar  255  INH255      0.0360
      6  C6        -2.0790   -0.9980   -5.6200 C.ar  255  INH255      0.0650
      7  O1        -1.3710   -2.1100   -5.9720 O.3   255  INH255     -0.3610
      8  H6        -1.9210   -2.8790   -5.8830 H     255  INH255      0.2170
@<TRIPOS>BOND
     1     5     3   ar
     2     5     6   ar
     3     3     1   ar
     4     7     8    1
     5     7     6    1
     6     6     4   ar
     7     1     2   ar
     8     4     2   ar
