@<TRIPOS>MOLECULE
/tmp/ewbell/vina_2pzv_2pzv_lig/vina/vina5.pdbqt
 8 8 0 0 0
SMALL
GASTEIGER

@<TRIPOS>ATOM
      1  C1        -3.4450    2.3780   -5.4950 C.ar  255  INH255      0.0000
      2  C2        -2.1500    2.7830   -5.9080 C.ar  255  INH255      0.0030
      3  C3        -3.6320    1.5730   -4.3420 C.ar  255  INH255      0.0030
      4  C4        -1.0570    2.3280   -5.1690 C.ar  255  INH255      0.0360
      5  C5        -2.5330    1.1220   -3.6160 C.ar  255  INH255      0.0360
      6  C6        -1.2610    1.5470   -4.0340 C.ar  255  INH255      0.0650
      7  O1        -0.1230    1.1580   -3.3890 O.3   255  INH255     -0.3610
      8  H6         0.6310    1.3480   -3.9330 H     255  INH255      0.2170
@<TRIPOS>BOND
     1     2     1   ar
     2     2     4   ar
     3     1     3   ar
     4     4     6   ar
     5     3     5   ar
     6     6     5   ar
     7     6     7    1
     8     8     7    1
