@<TRIPOS>MOLECULE
/tmp/ewbell/vina_2pzv_2pzv_lig/vina/vina1.pdbqt
 8 8 0 0 0
SMALL
GASTEIGER

@<TRIPOS>ATOM
      1  C1        -3.4770    0.5830   -5.5790 C.ar  255  INH255      0.0000
      2  C2        -3.0620   -0.7440   -5.8570 C.ar  255  INH255      0.0030
      3  C3        -2.9600    1.3000   -4.4710 C.ar  255  INH255      0.0030
      4  C4        -2.1560   -1.3420   -4.9780 C.ar  255  INH255      0.0360
      5  C5        -2.0620    0.6900   -3.5990 C.ar  255  INH255      0.0360
      6  C6        -1.6520   -0.6180   -3.9010 C.ar  255  INH255      0.0650
      7  O1        -0.7760   -1.3010   -3.1070 O.3   255  INH255     -0.3610
      8  H6        -0.9500   -1.0990   -2.1950 H     255  INH255      0.2170
@<TRIPOS>BOND
     1     2     1   ar
     2     2     4   ar
     3     1     3   ar
     4     4     6   ar
     5     3     5   ar
     6     6     5   ar
     7     6     7    1
     8     7     8    1
