@<TRIPOS>MOLECULE
/tmp/ewbell/vina_2pzv_2pzv_lig/vina/vina4.pdbqt
 8 8 0 0 0
SMALL
GASTEIGER

@<TRIPOS>ATOM
      1  C1        -2.1750   -1.4470   -5.3140 C.ar  255  INH255      0.0000
      2  C2        -3.0510   -0.3560   -5.5470 C.ar  255  INH255      0.0030
      3  C3        -1.3700   -1.5100   -4.1480 C.ar  255  INH255      0.0030
      4  C4        -3.0670    0.6800   -4.6100 C.ar  255  INH255      0.0360
      5  C5        -1.3920   -0.4680   -3.2250 C.ar  255  INH255      0.0360
      6  C6        -2.2760    0.5950   -3.4660 C.ar  255  INH255      0.0650
      7  O1        -2.3690    1.6630   -2.6210 O.3   255  INH255     -0.3610
      8  H6        -1.5260    1.8200   -2.2140 H     255  INH255      0.2170
@<TRIPOS>BOND
     1     2     1   ar
     2     2     4   ar
     3     1     3   ar
     4     4     6   ar
     5     3     5   ar
     6     6     5   ar
     7     6     7    1
     8     7     8    1
