@<TRIPOS>MOLECULE
/tmp/ewbell/vina_2pzv_2pzv_lig/vina/vina2.pdbqt
 8 8 0 0 0
SMALL
GASTEIGER

@<TRIPOS>ATOM
      1  C1        -3.4450    0.4070   -5.7450 C.ar  255  INH255      0.0000
      2  C2        -3.0540    1.0940   -4.5670 C.ar  255  INH255      0.0030
      3  C3        -2.9540   -0.8910   -6.0380 C.ar  255  INH255      0.0030
      4  C4        -2.1340    0.4700   -3.7230 C.ar  255  INH255      0.0360
      5  C5        -2.0330   -1.4990   -5.1900 C.ar  255  INH255      0.0360
      6  C6        -1.6710   -0.8090   -4.0230 C.ar  255  INH255      0.0650
      7  O1        -0.7740   -1.3220   -3.1300 O.3   255  INH255     -0.3610
      8  H6        -0.8330   -0.8440   -2.3110 H     255  INH255      0.2170
@<TRIPOS>BOND
     1     3     1   ar
     2     3     5   ar
     3     1     2   ar
     4     5     6   ar
     5     2     4   ar
     6     6     4   ar
     7     6     7    1
     8     7     8    1
