@<TRIPOS>MOLECULE
./ligand/3d2r_lig.pdb
 39 41 0 0 0
SMALL
GASTEIGER

@<TRIPOS>ATOM
      1  C1       -17.6290    4.4310   27.0070 C.3   739  INH739      0.0836
      2  C2       -17.0160    5.2200   28.1780 C.3   739  INH739      0.1133
      3  P1       -21.4650    5.3780   26.8680 P.3   739  INH739      0.5373
      4  O1       -20.4730    4.3680   26.0100 O.3   739  INH739     -0.2261
      5  O2       -22.8020    4.8120   26.7120 O.3   739  INH739     -0.1143
      6  O3       -19.6610    5.8800   24.1220 O.2   739  INH739     -0.5170
      7  O4       -20.9120    5.2790   28.3320 O.3   739  INH739     -0.1143
      8  O5       -18.8000    3.3610   24.4170 O.3   739  INH739     -0.4370
      9  O6       -21.3250    6.7530   26.3230 O.2   739  INH739     -0.2221
     10  O7       -18.0690    5.2780   25.9200 O.3   739  INH739     -0.3245
     11  P2       -19.2740    4.6920   24.9660 P.3   739  INH739      0.2224
     12  O8       -15.8370    5.8360   27.6930 O.3   739  INH739     -0.3456
     13  C3       -17.8370    6.4340   28.6420 C.3   739  INH739      0.1135
     14  O9       -18.8850    6.0910   29.5670 O.3   739  INH739     -0.3864
     15  C4       -16.8040    7.3450   29.2270 C.3   739  INH739      0.1285
     16  O10      -16.4950    6.8590   30.5380 O.3   739  INH739     -0.3847
     17  C5       -15.5910    7.0780   28.3350 C.3   739  INH739      0.1665
     18  N1       -15.3970    8.1520   27.3390 N.ar  739  INH739     -0.2877
     19  C6       -15.7080    8.1030   26.0150 C.ar  739  INH739      0.0999
     20  N2       -15.3340    9.2410   25.3880 N.ar  739  INH739     -0.2346
     21  C7       -14.7890   10.0470   26.3530 C.ar  739  INH739      0.1287
     22  C8       -14.2450   11.3730   26.4020 C.3   739  INH739      0.2004
     23  N3       -14.2150   12.1620   25.2540 N.3   739  INH739     -0.2985
     24  N4       -13.6850   11.7930   27.5970 N.2   739  INH739     -0.2420
     25  C9       -13.7530   11.1090   28.7440 C.2   739  INH739      0.1049
     26  N5       -14.2860    9.8880   28.7750 N.pl3 739  INH739     -0.1840
     27  C10      -14.7950    9.3100   27.6250 C.ar  739  INH739      0.1528
     28  H1       -18.4940    3.8650   27.3820 H     739  INH739      0.0591
     29  H2       -16.8720    3.7320   26.6220 H     739  INH739      0.0591
     30  H3       -16.8170    4.5400   29.0200 H     739  INH739      0.0647
     31  H4       -18.3050    6.9180   27.7720 H     739  INH739      0.0647
     32  H5       -19.5070    5.5140   29.1400 H     739  INH739      0.2100
     33  H6       -17.1110    8.4010   29.2370 H     739  INH739      0.0665
     34  H7       -15.8360    7.4160   30.9350 H     739  INH739      0.2101
     35  H8       -14.6860    7.0040   28.9550 H     739  INH739      0.0866
     36  H9       -16.1930    7.2600   25.5260 H     739  INH739      0.1030
     37  H10      -14.6810   11.8380   24.3940 H     739  INH739      0.1209
     38  H11      -13.7270   13.0690   25.2650 H     739  INH739      0.1209
     39  H12      -13.3710   11.5520   29.6570 H     739  INH739      0.1015
@<TRIPOS>BOND
     1     6    11    2
     2    37    23    1
     3     8    11    1
     4    11    10    1
     5    11     4    1
     6    23    38    1
     7    23    22    1
     8    20    19   ar
     9    20    21   ar
    10    36    19    1
    11    10     1    1
    12     4     3    1
    13    19    18   ar
    14     9     3    2
    15    21    22    1
    16    21    27   ar
    17    22    24    1
    18    29     1    1
    19     5     3    1
    20     3     7    1
    21     1    28    1
    22     1     2    1
    23    18    27   ar
    24    18    17    1
    25    24    25    2
    26    27    26    1
    27    12     2    1
    28    12    17    1
    29    31    13    1
    30     2    13    1
    31     2    30    1
    32    17    35    1
    33    17    15    1
    34    13    15    1
    35    13    14    1
    36    25    26    1
    37    25    39    1
    38    32    14    1
    39    15    33    1
    40    15    16    1
    41    16    34    1
