@<TRIPOS>MOLECULE
/tmp/ewbell/vina_3d2r_3d2r_lig/vina/vina4.pdbqt
 37 39 0 0 0
SMALL
GASTEIGER

@<TRIPOS>ATOM
      1  C2       -16.1250    7.1030   27.2700 C.3   739  INH739      0.1800
      2  O8       -14.9600    7.7850   26.8460 O.3   739  INH739     -0.3530
      3  C3       -17.0070    8.2620   27.7630 C.3   739  INH739      0.1820
      4  C4       -16.0270    9.1860   28.4150 C.3   739  INH739      0.1980
      5  C5       -14.7810    9.0060   27.5470 C.3   739  INH739      0.2620
      6  N1       -14.6040   10.1300   26.6040 N.pl3 739  INH739     -0.2970
      7  C6       -14.4100   11.4390   26.9220 C.3   739  INH739      0.1870
      8  N2       -14.3540   12.2040   25.8080 N.pl3 739  INH739     -0.3490
      9  C7       -14.4930   11.3460   24.7490 C.2   739  INH739      0.0970
     10  H2       -14.2320   13.2160   25.7660 H     739  INH739      0.1660
     11  C8       -14.4840   11.4630   23.3200 C.3   739  INH739      0.2300
     12  C10      -14.6990    9.9900   25.2790 C.2   739  INH739      0.1380
     13  N4       -14.7720   10.3270   22.5810 N.3   739  INH739     -0.3600
     14  C9       -14.9070    9.1030   23.1010 C.3   739  INH739      0.1790
     15  H4       -14.8890   10.4320   21.5740 H     739  INH739      0.1620
     16  N5       -14.8820    8.9200   24.4210 N.pl3 739  INH739     -0.3370
     17  H        -14.9950    8.0140   24.7890 H     739  INH739      0.1680
     18  N3       -14.2730   12.7020   22.7180 N.3   739  INH739     -0.4060
     19  H10      -13.5720   12.7980   21.9690 H     739  INH739      0.1520
     20  H11      -14.8170   13.5210   23.0230 H     739  INH739      0.1520
     21  O10      -15.7340    8.6550   29.7120 O.3   739  INH739     -0.3880
     22  H7       -16.5370    8.3570   30.1220 H     739  INH739      0.2100
     23  C1       -16.6750    6.3430   26.0490 C.3   739  INH739      0.2150
     24  O7       -18.1180    6.2480   26.0420 O.3   739  INH739     -0.2940
     25  P2       -18.7680    4.8960   25.3670 P.3   739  INH739      0.4010
     26  O3       -19.2710    5.3800   24.0310 O.2   739  INH739     -0.6310
     27  O1       -20.0350    4.5550   26.3210 O.3   739  INH739     -0.1950
     28  P1       -20.9920    5.5410   27.2440 P.3   739  INH739      0.3990
     29  O6       -22.2950    4.8620   27.4650 O.2   739  INH739     -0.6310
     30  O2       -20.2280    5.7680   28.4670 O.3   739  INH739     -0.3070
     31  H        -20.8210    5.7220   29.2330 H     739  INH739      0.2220
     32  O4       -21.1540    6.8260   26.3610 O.3   739  INH739     -0.3070
     33  H        -21.7680    7.4410   26.7940 H     739  INH739      0.2220
     34  O5       -17.7630    3.7770   25.5560 O.3   739  INH739     -0.3070
     35  H        -16.9000    4.1530   25.7930 H     739  INH739      0.2220
     36  O9       -18.0640    7.8380   28.6420 O.3   739  INH739     -0.3900
     37  H5       -17.9060    8.1800   29.5140 H     739  INH739      0.2100
@<TRIPOS>BOND
     1    15    13    1
     2    19    18    1
     3    13    14    1
     4    13    11    1
     5    18    20    1
     6    18    11    1
     7    14    16    1
     8    11     9    1
     9    26    25    2
    10    16    17    1
    11    16    12    1
    12     9    12    2
    13     9     8    1
    14    12     6    1
    15    25    34    1
    16    25    24    1
    17    25    27    1
    18    34    35    1
    19    10     8    1
    20     8     7    1
    21    24    23    1
    22    23     1    1
    23    27    28    1
    24    32    33    1
    25    32    28    1
    26     6     7    1
    27     6     5    1
    28     2     1    1
    29     2     5    1
    30    28    29    2
    31    28    30    1
    32     1     3    1
    33     5     4    1
    34     3     4    1
    35     3    36    1
    36     4    21    1
    37    30    31    1
    38    36    37    1
    39    21    22    1
