@<TRIPOS>MOLECULE
/tmp/ewbell/vina_3d2r_3d2r_lig/vina/vina3.pdbqt
 37 39 0 0 0
SMALL
GASTEIGER

@<TRIPOS>ATOM
      1  C2       -17.0590    5.2250   27.8270 C.3   739  INH739      0.1800
      2  O8       -15.8310    5.8360   27.4750 O.3   739  INH739     -0.3530
      3  C3       -17.9530    6.4470   28.0920 C.3   739  INH739      0.1820
      4  C4       -17.0260    7.4140   28.7580 C.3   739  INH739      0.1980
      5  C5       -15.6950    7.1200   28.0650 C.3   739  INH739      0.2620
      6  N1       -15.3750    8.1350   27.0400 N.pl3 739  INH739     -0.2970
      7  C6       -15.5800    8.0330   25.6990 C.3   739  INH739      0.1870
      8  N2       -15.1080    9.1230   25.0530 N.pl3 739  INH739     -0.3490
      9  C7       -14.6090    9.9540   26.0220 C.2   739  INH739      0.0970
     10  H2       -15.1200    9.2920   24.0470 H     739  INH739      0.1660
     11  C8       -14.0140   11.2580   26.0550 C.3   739  INH739      0.2300
     12  C10      -14.7490    9.2810   27.3220 C.2   739  INH739      0.1380
     13  N4       -13.5360   11.7150   27.2720 N.3   739  INH739     -0.3600
     14  C9       -13.7260   11.0910   28.4390 C.3   739  INH739      0.1790
     15  H4       -13.0030   12.5840   27.2780 H     739  INH739      0.1620
     16  N5       -14.3110    9.8950   28.4820 N.pl3 739  INH739     -0.3370
     17  H        -14.4330    9.4430   29.3490 H     739  INH739      0.1680
     18  N3       -13.8570   11.9880   24.8780 N.3   739  INH739     -0.4060
     19  H10      -14.6460   12.0820   24.2220 H     739  INH739      0.1520
     20  H11      -12.9530   12.4330   24.6650 H     739  INH739      0.1520
     21  O10      -16.9010    7.0160   30.1270 O.3   739  INH739     -0.3880
     22  H7       -15.9960    7.1060   30.4020 H     739  INH739      0.2100
     23  C1       -17.4880    4.3520   26.6330 C.3   739  INH739      0.2150
     24  O7       -18.9240    4.2100   26.5210 O.3   739  INH739     -0.2940
     25  P2       -19.5580    4.2810   25.0050 P.3   739  INH739      0.4010
     26  O3       -19.0620    5.6040   24.4790 O.2   739  INH739     -0.6310
     27  O1       -21.1580    4.3750   25.2580 O.3   739  INH739     -0.1950
     28  P1       -22.0460    5.3980   26.2090 P.3   739  INH739      0.3990
     29  O6       -22.6020    4.6210   27.3470 O.2   739  INH739     -0.6310
     30  O2       -21.1110    6.4460   26.6080 O.3   739  INH739     -0.3070
     31  H        -20.7680    6.2540   27.4940 H     739  INH739      0.2220
     32  O4       -23.1780    5.9030   25.2490 O.3   739  INH739     -0.3070
     33  H        -23.6510    6.6400   25.6650 H     739  INH739      0.2220
     34  O5       -19.2970    2.9390   24.3500 O.3   739  INH739     -0.3070
     35  H        -18.7280    3.0640   23.5730 H     739  INH739      0.2220
     36  O9       -19.1180    6.1380   28.8790 O.3   739  INH739     -0.3900
     37  H5       -19.6160    6.9320   29.0320 H     739  INH739      0.2100
@<TRIPOS>BOND
     1    35    34    1
     2    10     8    1
     3    19    18    1
     4    34    25    1
     5    26    25    2
     6    20    18    1
     7    18    11    1
     8    25    27    1
     9    25    24    1
    10     8     7    1
    11     8     9    1
    12    32    33    1
    13    32    28    1
    14    27    28    1
    15     7     6    1
    16     9    11    1
    17     9    12    2
    18    11    13    1
    19    28    30    1
    20    28    29    2
    21    24    23    1
    22    30    31    1
    23    23     1    1
    24     6    12    1
    25     6     5    1
    26    13    15    1
    27    13    14    1
    28    12    16    1
    29     2     1    1
    30     2     5    1
    31     1     3    1
    32     5     4    1
    33     3     4    1
    34     3    36    1
    35    14    16    1
    36    16    17    1
    37     4    21    1
    38    36    37    1
    39    21    22    1
