@<TRIPOS>MOLECULE
/tmp/ewbell/vina_3d2r_3d2r_lig/vina/vina2.pdbqt
 37 39 0 0 0
SMALL
GASTEIGER

@<TRIPOS>ATOM
      1  C2       -16.1900    7.3230   27.7110 C.3   739  INH739      0.1800
      2  O8       -15.1440    7.7740   26.8700 O.3   739  INH739     -0.3530
      3  C3       -16.4800    8.5760   28.5530 C.3   739  INH739      0.1820
      4  C4       -15.1200    9.1600   28.7790 C.3   739  INH739      0.1980
      5  C5       -14.3980    8.8200   27.4750 C.3   739  INH739      0.2620
      6  N1       -14.3120    9.9890   26.5760 N.pl3 739  INH739     -0.2970
      7  C6       -14.1000   11.2830   26.9390 C.3   739  INH739      0.1870
      8  N2       -14.1470   12.1010   25.8630 N.pl3 739  INH739     -0.3490
      9  C7       -14.3720   11.2930   24.7790 C.2   739  INH739      0.0970
     10  H2       -14.0370   13.1150   25.8590 H     739  INH739      0.1660
     11  C8       -14.4880   11.4770   23.3620 C.3   739  INH739      0.2300
     12  C10      -14.5210    9.9110   25.2590 C.2   739  INH739      0.1380
     13  N4       -14.8310   10.3750   22.5970 N.3   739  INH739     -0.3600
     14  C9       -14.9120    9.1260   23.0670 C.3   739  INH739      0.1790
     15  H4       -15.0360   10.5260   21.6100 H     739  INH739      0.1620
     16  N5       -14.7710    8.8810   24.3690 N.pl3 739  INH739     -0.3370
     17  H        -14.8450    7.9570   24.7010 H     739  INH739      0.1680
     18  N3       -14.3390   12.7460   22.8050 N.3   739  INH739     -0.4060
     19  H10      -13.5340   12.9500   22.1960 H     739  INH739      0.1520
     20  H11      -15.0350   13.4800   23.0030 H     739  INH739      0.1520
     21  O10      -14.5000    8.4090   29.8290 O.3   739  INH739     -0.3880
     22  H7       -15.0620    7.6850   30.0760 H     739  INH739      0.2100
     23  C1       -17.3440    6.8750   26.7960 C.3   739  INH739      0.2150
     24  O7       -18.6250    7.4230   27.1870 O.3   739  INH739     -0.2940
     25  P2       -19.8940    6.3770   27.2320 P.3   739  INH739      0.4010
     26  O3       -20.0260    6.0490   28.6970 O.2   739  INH739     -0.6310
     27  O1       -19.3490    5.0700   26.4400 O.3   739  INH739     -0.1950
     28  P1       -19.7360    4.4680   24.9480 P.3   739  INH739      0.3990
     29  O6       -18.9050    3.2620   24.6950 O.2   739  INH739     -0.6310
     30  O2       -21.1690    4.1970   25.0130 O.3   739  INH739     -0.3070
     31  H        -21.3600    3.3560   24.5690 H     739  INH739      0.2220
     32  O4       -19.3650    5.6380   23.9720 O.3   739  INH739     -0.3070
     33  H        -19.5240    5.3590   23.0570 H     739  INH739      0.2220
     34  O5       -20.9950    6.9770   26.3800 O.3   739  INH739     -0.3070
     35  H        -20.8130    7.9190   26.2320 H     739  INH739      0.2220
     36  O9       -17.1880    8.2890   29.7730 O.3   739  INH739     -0.3900
     37  H5       -16.7700    7.5610   30.2170 H     739  INH739      0.2100
@<TRIPOS>BOND
     1    15    13    1
     2    19    18    1
     3    13    14    1
     4    13    11    1
     5    18    20    1
     6    18    11    1
     7    33    32    1
     8    14    16    1
     9    11     9    1
    10    32    28    1
    11    16    17    1
    12    16    12    1
    13    31    30    1
    14    29    28    2
    15     9    12    2
    16     9     8    1
    17    28    30    1
    18    28    27    1
    19    12     6    1
    20    10     8    1
    21     8     7    1
    22    35    34    1
    23    34    25    1
    24    27    25    1
    25     6     7    1
    26     6     5    1
    27    23    24    1
    28    23     1    1
    29     2     5    1
    30     2     1    1
    31    24    25    1
    32    25    26    2
    33     5     4    1
    34     1     3    1
    35     3     4    1
    36     3    36    1
    37     4    21    1
    38    36    37    1
    39    21    22    1
