@<TRIPOS>MOLECULE
/tmp/ewbell/vina_3d2r_3d2r_lig/vina/vina1.pdbqt
 37 39 0 0 0
SMALL
GASTEIGER

@<TRIPOS>ATOM
      1  C2       -18.3260    5.7300   27.1990 C.3   739  INH739      0.1800
      2  O8       -17.0910    6.3710   26.9410 O.3   739  INH739     -0.3530
      3  C3       -18.8940    6.5900   28.3400 C.3   739  INH739      0.1820
      4  C4       -17.6840    6.9210   29.1570 C.3   739  INH739      0.1980
      5  C5       -16.5930    7.0380   28.0910 C.3   739  INH739      0.2620
      6  N1       -16.2780    8.4480   27.7830 N.pl3 739  INH739     -0.2970
      7  C6       -16.5220    9.5300   28.5710 C.3   739  INH739      0.1870
      8  N2       -16.1640   10.6740   27.9460 N.pl3 739  INH739     -0.3490
      9  C7       -15.6530   10.3010   26.7300 C.2   739  INH739      0.0970
     10  H2       -16.2550   11.6240   28.3080 H     739  INH739      0.1660
     11  C8       -15.0630   10.9740   25.6100 C.3   739  INH739      0.2300
     12  C10      -15.7690    8.8410   26.6110 C.2   739  INH739      0.1380
     13  N4       -14.7610   10.2150   24.4920 N.3   739  INH739     -0.3600
     14  C9       -14.8380    8.8810   24.4420 C.3   739  INH739      0.1790
     15  H4       -14.4580   10.7050   23.6510 H     739  INH739      0.1620
     16  N5       -15.3370    8.1920   25.4680 N.pl3 739  INH739     -0.3370
     17  H        -15.3990    7.2110   25.4110 H     739  INH739      0.1680
     18  N3       -14.8880   12.3560   25.6340 N.3   739  INH739     -0.4060
     19  H10      -15.6760   12.9800   25.4040 H     739  INH739      0.1520
     20  H11      -13.9710   12.7550   25.8820 H     739  INH739      0.1520
     21  O10      -17.3830    5.7770   29.9630 O.3   739  INH739     -0.3880
     22  H7       -17.0150    5.0920   29.4170 H     739  INH739      0.2100
     23  C1       -19.1380    5.7680   25.8920 C.3   739  INH739      0.2150
     24  O7       -20.4980    6.2240   26.0810 O.3   739  INH739     -0.2940
     25  P2       -21.6820    5.0870   25.9730 P.3   739  INH739      0.4010
     26  O3       -21.0920    4.0550   25.0460 O.2   739  INH739     -0.6310
     27  O1       -22.8910    5.8570   25.2120 O.3   739  INH739     -0.1950
     28  P1       -24.1910    5.2700   24.3730 P.3   739  INH739      0.3990
     29  O6       -24.4900    6.1990   23.2530 O.2   739  INH739     -0.6310
     30  O2       -23.7870    3.9340   23.9420 O.3   739  INH739     -0.3070
     31  H        -23.6440    3.9320   22.9830 H     739  INH739      0.2220
     32  O4       -25.3420    5.2610   25.4380 O.3   739  INH739     -0.3070
     33  H        -25.6800    4.3580   25.5420 H     739  INH739      0.2220
     34  O5       -22.1610    4.8070   27.3830 O.3   739  INH739     -0.3070
     35  H        -21.4250    4.4620   27.9120 H     739  INH739      0.2220
     36  O9       -19.9260    5.9270   29.0920 O.3   739  INH739     -0.3900
     37  H5       -20.3640    5.2930   28.5370 H     739  INH739      0.2100
@<TRIPOS>BOND
     1    31    30    1
     2    29    28    2
     3    15    13    1
     4    30    28    1
     5    28    27    1
     6    28    32    1
     7    14    13    1
     8    14    16    1
     9    13    11    1
    10    26    25    2
    11    27    25    1
    12    19    18    1
    13    17    16    1
    14    32    33    1
    15    16    12    1
    16    11    18    1
    17    11     9    1
    18    18    20    1
    19    23    24    1
    20    23     1    1
    21    25    24    1
    22    25    34    1
    23    12     9    2
    24    12     6    1
    25     9     8    1
    26     2     1    1
    27     2     5    1
    28     1     3    1
    29    34    35    1
    30     6     5    1
    31     6     7    1
    32     8    10    1
    33     8     7    1
    34     5     4    1
    35     3    36    1
    36     3     4    1
    37    37    36    1
    38     4    21    1
    39    22    21    1
