@<TRIPOS>MOLECULE
/tmp/ewbell/vina_3d2r_3d2r_lig/vina/vina5.pdbqt
 37 39 0 0 0
SMALL
GASTEIGER

@<TRIPOS>ATOM
      1  C2       -18.0230    6.7170   27.8250 C.3   739  INH739      0.1800
      2  O8       -18.0320    8.0810   28.2050 O.3   739  INH739     -0.3530
      3  C3       -16.5170    6.4070   27.8010 C.3   739  INH739      0.1820
      4  C4       -15.9170    7.6620   27.2480 C.3   739  INH739      0.1980
      5  C5       -16.8370    8.7420   27.8170 C.3   739  INH739      0.2620
      6  N1       -16.2240    9.4320   28.9710 N.pl3 739  INH739     -0.2970
      7  C6       -16.6310    9.3730   30.2680 C.3   739  INH739      0.1870
      8  N2       -15.8790   10.1810   31.0480 N.pl3 739  INH739     -0.3490
      9  C7       -14.9490   10.7530   30.2210 C.2   739  INH739      0.0970
     10  H2       -15.9840   10.3350   32.0520 H     739  INH739      0.1660
     11  C8       -13.8420   11.6510   30.3790 C.3   739  INH739      0.2300
     12  C10      -15.2060   10.2890   28.8500 C.2   739  INH739      0.1380
     13  N4       -13.1930   12.0780   29.2320 N.3   739  INH739     -0.3600
     14  C9       -13.4280   11.5950   28.0070 C.3   739  INH739      0.1790
     15  H4       -12.4890   12.8090   29.3270 H     739  INH739      0.1620
     16  N5       -14.4160   10.7240   27.8000 N.pl3 739  INH739     -0.3370
     17  H        -14.5840   10.3870   26.8900 H     739  INH739      0.1680
     18  N3       -13.5010   12.1300   31.6420 N.3   739  INH739     -0.4060
     19  H10      -13.1980   11.4740   32.3770 H     739  INH739      0.1520
     20  H11      -13.5540   13.1390   31.8420 H     739  INH739      0.1520
     21  O10      -16.1010    7.6380   25.8280 O.3   739  INH739     -0.3880
     22  H7       -15.4010    8.1250   25.4100 H     739  INH739      0.2100
     23  C1       -18.8270    5.9460   28.8870 C.3   739  INH739      0.2150
     24  O7       -20.2580    6.0910   28.7320 O.3   739  INH739     -0.2940
     25  P2       -20.8900    5.6810   27.2700 P.3   739  INH739      0.4010
     26  O3       -22.1610    4.9540   27.6300 O.2   739  INH739     -0.6310
     27  O1       -19.8210    4.6170   26.6700 O.3   739  INH739     -0.1950
     28  P1       -19.2770    4.3840   25.1240 P.3   739  INH739      0.3990
     29  O6       -18.5830    3.0720   25.0610 O.2   739  INH739     -0.6310
     30  O2       -20.4720    4.4630   24.2890 O.3   739  INH739     -0.3070
     31  H        -21.2210    4.0640   24.7590 H     739  INH739      0.2220
     32  O4       -18.2810    5.5740   24.9020 O.3   739  INH739     -0.3070
     33  H        -18.2570    5.8060   23.9600 H     739  INH739      0.2220
     34  O5       -20.8200    6.9150   26.3920 O.3   739  INH739     -0.3070
     35  H        -19.9150    7.0220   26.0570 H     739  INH739      0.2220
     36  O9       -16.1910    5.2330   27.0350 O.3   739  INH739     -0.3900
     37  H5       -15.5790    5.4650   26.3460 H     739  INH739      0.2100
@<TRIPOS>BOND
     1    33    32    1
     2    30    31    1
     3    30    28    1
     4    32    28    1
     5    29    28    2
     6    28    27    1
     7    22    21    1
     8    21     4    1
     9    35    34    1
    10    37    36    1
    11    34    25    1
    12    27    25    1
    13    17    16    1
    14    36     3    1
    15     4     3    1
    16     4     5    1
    17    25    26    2
    18    25    24    1
    19    16    14    1
    20    16    12    1
    21     3     1    1
    22     5     2    1
    23     5     6    1
    24     1     2    1
    25     1    23    1
    26    14    13    1
    27    24    23    1
    28    12     6    1
    29    12     9    2
    30     6     7    1
    31    13    15    1
    32    13    11    1
    33     9    11    1
    34     9     8    1
    35     7     8    1
    36    11    18    1
    37     8    10    1
    38    18    20    1
    39    18    19    1
