@<TRIPOS>MOLECULE
./ligand/2pjo_lig.pdb
 11 10 0 0 0
SMALL
GASTEIGER

@<TRIPOS>ATOM
      1  C1         9.8950   25.0110   41.6980 C.2   261  INH261      0.2968
      2  C2        10.2750   22.9120   42.9710 C.3   261  INH261      0.0015
      3  N1         9.3680   25.6030   40.6400 N.am  261  INH261     -0.3134
      4  N2         9.7340   23.6850   41.8320 N.am  261  INH261     -0.3026
      5  O1        10.5140   25.7180   42.5140 O.2   261  INH261     -0.2531
      6  H1        10.4090   21.8620   42.6720 H     261  INH261      0.0426
      7  H2        11.2450   23.3340   43.2730 H     261  INH261      0.0426
      8  H3         9.5730   22.9650   43.8160 H     261  INH261      0.0426
      9  H4         8.8940   24.9500   40.0490 H     261  INH261      0.1465
     10  H5         9.4350   26.5830   40.4530 H     261  INH261      0.1465
     11  H6         9.2220   23.1950   41.1260 H     261  INH261      0.1499
@<TRIPOS>BOND
     1     1     5    2
     2     1     4   am
     3     1     3   am
     4     2     4    1
     5     2     8    1
     6     2     7    1
     7     2     6    1
     8     3    10    1
     9     3     9    1
    10     4    11    1
