@<TRIPOS>MOLECULE
/tmp/ewbell/vina_2pjo_2pjo_lig/vina/vina2.pdbqt
 8 7 0 0 0
SMALL
GASTEIGER

@<TRIPOS>ATOM
      1  C1         3.5520   29.4950   45.3150 C.2   261  INH261      0.3130
      2  C2         3.4720   28.3260   43.1240 C.3   261  INH261      0.1510
      3  N1         2.8920   30.0050   46.3400 N.am  261  INH261     -0.3520
      4  N2         2.8470   28.9280   44.3220 N.am  261  INH261     -0.3480
      5  O1         4.7930   29.5690   45.3260 O.2   261  INH261     -0.2480
      6  H4         1.9020   29.8940   46.2350 H     261  INH261      0.1600
      7  H5         3.3270   30.4460   47.1250 H     261  INH261      0.1600
      8  H6         1.8500   28.9120   44.3970 H     261  INH261      0.1630
@<TRIPOS>BOND
     1     2     4    1
     2     4     8    1
     3     4     1   am
     4     1     5    2
     5     1     3   am
     6     6     3    1
     7     3     7    1
