@<TRIPOS>MOLECULE
/tmp/ewbell/vina_2pjo_2pjo_lig/vina/vina3.pdbqt
 8 7 0 0 0
SMALL
GASTEIGER

@<TRIPOS>ATOM
      1  C1         9.7400   25.1220   41.7180 C.2   261  INH261      0.3130
      2  C2         9.9320   23.2880   43.3820 C.3   261  INH261      0.1510
      3  N1         9.1260   25.6150   40.6560 N.am  261  INH261     -0.3520
      4  N2         9.3250   23.9400   42.2020 N.am  261  INH261     -0.3480
      5  O1        10.6720   25.7810   42.2120 O.2   261  INH261     -0.2480
      6  H4         8.3950   25.0100   40.3380 H     261  INH261      0.1600
      7  H5         9.3630   26.4850   40.2240 H     261  INH261      0.1600
      8  H6         8.5660   23.4790   41.7420 H     261  INH261      0.1630
@<TRIPOS>BOND
     1     7     3    1
     2     6     3    1
     3     3     1   am
     4     1     4   am
     5     1     5    2
     6     8     4    1
     7     4     2    1
