@<TRIPOS>MOLECULE
/tmp/ewbell/vina_2pjo_2pjo_lig/vina/vina4.pdbqt
 8 7 0 0 0
SMALL
GASTEIGER

@<TRIPOS>ATOM
      1  C1         4.4040   29.4580   54.2510 C.2   261  INH261      0.3130
      2  C2         2.8950   28.5690   52.4900 C.3   261  INH261      0.1510
      3  N1         5.6370   29.7460   54.6340 N.am  261  INH261     -0.3520
      4  N2         4.2230   28.9330   53.0290 N.am  261  INH261     -0.3480
      5  O1         3.4770   29.6900   55.0480 O.2   261  INH261     -0.2480
      6  H4         6.3060   29.5230   53.9240 H     261  INH261      0.1600
      7  H5         5.8720   30.1380   55.5230 H     261  INH261      0.1600
      8  H6         5.0270   28.7800   52.4540 H     261  INH261      0.1630
@<TRIPOS>BOND
     1     8     4    1
     2     2     4    1
     3     4     1   am
     4     6     3    1
     5     1     3   am
     6     1     5    2
     7     3     7    1
