@<TRIPOS>MOLECULE
/tmp/ewbell/vina_2pjo_2pjo_lig/vina/vina1.pdbqt
 8 7 0 0 0
SMALL
GASTEIGER

@<TRIPOS>ATOM
      1  C1        11.1910   21.0380   47.7260 C.2   261  INH261      0.3130
      2  C2         9.7200   20.2610   45.8810 C.3   261  INH261      0.1510
      3  N1        12.2120   20.7900   48.5280 N.am  261  INH261     -0.3520
      4  N2        10.8430   20.1000   46.8300 N.am  261  INH261     -0.3480
      5  O1        10.6080   22.1300   47.8450 O.2   261  INH261     -0.2480
      6  H4        12.6100   19.8890   48.3520 H     261  INH261      0.1600
      7  H5        12.5450   21.4240   49.2260 H     261  INH261      0.1600
      8  H6        11.3690   19.2500   46.8030 H     261  INH261      0.1630
@<TRIPOS>BOND
     1     2     4    1
     2     8     4    1
     3     4     1   am
     4     1     5    2
     5     1     3   am
     6     6     3    1
     7     3     7    1
