@<TRIPOS>MOLECULE
/tmp/ewbell/vina_2pjo_2pjo_lig/vina/vina5.pdbqt
 8 7 0 0 0
SMALL
GASTEIGER

@<TRIPOS>ATOM
      1  C1         3.3380   30.5680   40.1910 C.2   261  INH261      0.3130
      2  C2         2.6210   28.3830   41.1300 C.3   261  INH261      0.1510
      3  N1         3.6920   31.2730   39.1300 N.am  261  INH261     -0.3520
      4  N2         3.0290   29.2730   40.0220 N.am  261  INH261     -0.3480
      5  O1         3.3110   31.1460   41.2930 O.2   261  INH261     -0.2480
      6  H4         3.6810   30.7180   38.2980 H     261  INH261      0.1600
      7  H5         3.9400   32.2420   39.1560 H     261  INH261      0.1600
      8  H6         3.0770   28.8900   39.0990 H     261  INH261      0.1630
@<TRIPOS>BOND
     1     6     3    1
     2     8     4    1
     3     3     7    1
     4     3     1   am
     5     4     1   am
     6     4     2    1
     7     1     5    2
