@<TRIPOS>MOLECULE
./ligand/2fx6_lig.pdb
 18 19 0 0 0
SMALL
GASTEIGER

@<TRIPOS>ATOM
      1  N1        44.4200   -2.3760   25.6810 N.pl3 227  INH227     -0.3058
      2  C1        44.1210   -3.6080   25.3470 C.3   227  INH227      0.2043
      3  C2        44.1430   -2.2660   26.9430 C.ar  227  INH227      0.0509
      4  C3        44.2820   -1.1670   27.7600 C.ar  227  INH227     -0.0390
      5  C4        43.9050   -1.3490   29.0980 C.ar  227  INH227     -0.0599
      6  C5        43.4110   -2.5950   29.5450 C.ar  227  INH227     -0.0599
      7  C6        43.2860   -3.7060   28.6680 C.ar  227  INH227     -0.0390
      8  C7        43.6700   -3.4780   27.3690 C.ar  227  INH227      0.0509
      9  N2        43.6570   -4.3030   26.3630 N.pl3 227  INH227     -0.3058
     10  N3        44.3670   -4.0980   24.1680 N.3   227  INH227     -0.2906
     11  H1        44.6590   -0.2200   27.3920 H     227  INH227      0.0637
     12  H2        43.9930   -0.5250   29.7970 H     227  INH227      0.0618
     13  H3        43.1200   -2.7060   30.5830 H     227  INH227      0.0618
     14  H4        42.9130   -4.6680   29.0010 H     227  INH227      0.0637
     15  H5        43.3500   -5.2860   26.3620 H     227  INH227      0.1495
     16  H6        44.7300   -3.4880   23.4220 H     227  INH227      0.1219
     17  H7        44.2000   -5.0970   23.9800 H     227  INH227      0.1219
     18  H8        44.7990   -1.6430   25.0650 H     227  INH227      0.1495
@<TRIPOS>BOND
     1     1    18    1
     2     1     3    1
     3     1     2    1
     4     2    10    1
     5     2     9    1
     6     3     8   ar
     7     3     4   ar
     8     4    11    1
     9     4     5   ar
    10     5    12    1
    11     5     6   ar
    12     6    13    1
    13     6     7   ar
    14     7     8   ar
    15     7    14    1
    16     8     9    1
    17     9    15    1
    18    10    17    1
    19    10    16    1
