@<TRIPOS>MOLECULE
/tmp/ewbell/vina_2fx6_2fx6_lig/vina/vina3.pdbqt
 14 15 0 0 0
SMALL
GASTEIGER

@<TRIPOS>ATOM
      1  N1        43.4190   -0.4210   28.7270 N.pl3 227  INH227     -0.3440
      2  C1        42.6250   -0.8430   29.6810 C.3   227  INH227      0.7370
      3  C2        43.6010   -1.4310   27.9340 C.ar  227  INH227      0.0570
      4  C3        44.3560   -1.4950   26.7850 C.ar  227  INH227      0.0310
      5  C4        44.3590   -2.7310   26.1240 C.ar  227  INH227      0.0020
      6  C5        43.6260   -3.8250   26.6370 C.ar  227  INH227      0.0020
      7  C6        42.8570   -3.7150   27.8270 C.ar  227  INH227      0.0310
      8  C7        42.8840   -2.4840   28.4360 C.ar  227  INH227      0.0570
      9  N2        42.2860   -2.1050   29.5270 N.pl3 227  INH227     -0.3440
     10  N3        42.1520   -0.0590   30.6030 N.3   227  INH227     -0.0820
     11  H5        41.6780   -2.6700   30.1370 H     227  INH227      0.1630
     12  H6        42.4680    0.9200   30.6590 H     227  INH227      0.2610
     13  H7        41.4590   -0.4150   31.2770 H     227  INH227      0.2610
     14  H8        43.8170    0.5240   28.6270 H     227  INH227      0.1630
@<TRIPOS>BOND
     1     5     6   ar
     2     5     4   ar
     3     6     7   ar
     4     4     3   ar
     5     7     8   ar
     6     3     8   ar
     7     3     1    1
     8     8     9    1
     9    14     1    1
    10     1     2    1
    11     9     2    1
    12     9    11    1
    13     2    10    1
    14    10    12    1
    15    10    13    1
