@<TRIPOS>MOLECULE
/tmp/ewbell/vina_2fx6_2fx6_lig/vina/vina1.pdbqt
 14 15 0 0 0
SMALL
GASTEIGER

@<TRIPOS>ATOM
      1  N1        43.4400   -4.0620   26.3900 N.pl3 227  INH227     -0.3440
      2  C1        44.1690   -3.3910   25.5310 C.3   227  INH227      0.7370
      3  C2        43.2580   -3.2740   27.4030 C.ar  227  INH227      0.0570
      4  C3        42.5580   -3.5150   28.5640 C.ar  227  INH227      0.0310
      5  C4        42.5260   -2.4610   29.4880 C.ar  227  INH227      0.0020
      6  C5        43.1880   -1.2430   29.2160 C.ar  227  INH227      0.0020
      7  C6        43.8980   -1.0340   28.0020 C.ar  227  INH227      0.0310
      8  C7        43.8980   -2.0950   27.1290 C.ar  227  INH227      0.0570
      9  N2        44.4650   -2.1840   25.9620 N.pl3 227  INH227     -0.3440
     10  N3        44.4610   -3.8450   24.3480 N.3   227  INH227     -0.0820
     11  H5        45.0240   -1.4660   25.4800 H     227  INH227      0.1630
     12  H6        44.1950   -4.8040   24.0840 H     227  INH227      0.2610
     13  H7        44.9580   -3.2450   23.6740 H     227  INH227      0.2610
     14  H8        43.0830   -5.0210   26.2810 H     227  INH227      0.1630
@<TRIPOS>BOND
     1    13    10    1
     2    12    10    1
     3    10     2    1
     4    11     9    1
     5     2     9    1
     6     2     1    1
     7     9     8    1
     8    14     1    1
     9     1     3    1
    10     8     3   ar
    11     8     7   ar
    12     3     4   ar
    13     7     6   ar
    14     4     5   ar
    15     6     5   ar
