@<TRIPOS>MOLECULE
/tmp/ewbell/vina_2fx6_2fx6_lig/vina/vina4.pdbqt
 14 15 0 0 0
SMALL
GASTEIGER

@<TRIPOS>ATOM
      1  N1        42.4420   -3.5120   29.3650 N.pl3 227  INH227     -0.3440
      2  C1        42.3750   -4.6960   28.8080 C.3   227  INH227      0.7370
      3  C2        43.0360   -2.7410   28.5080 C.ar  227  INH227      0.0570
      4  C3        43.3420   -1.4040   28.6240 C.ar  227  INH227      0.0310
      5  C4        43.9860   -0.8270   27.5200 C.ar  227  INH227      0.0020
      6  C5        44.2920   -1.6010   26.3780 C.ar  227  INH227      0.0020
      7  C6        43.9550   -2.9790   26.2990 C.ar  227  INH227      0.0310
      8  C7        43.3240   -3.4970   27.4040 C.ar  227  INH227      0.0570
      9  N2        42.9120   -4.7140   27.6060 N.pl3 227  INH227     -0.3440
     10  N3        41.7490   -5.6970   29.3510 N.3   227  INH227     -0.0820
     11  H5        42.9880   -5.5170   26.9660 H     227  INH227      0.1630
     12  H6        41.3560   -5.6060   30.2990 H     227  INH227      0.2610
     13  H7        41.6440   -6.5820   28.8340 H     227  INH227      0.2610
     14  H8        42.0920   -3.2470   30.2970 H     227  INH227      0.1630
@<TRIPOS>BOND
     1     7     6   ar
     2     7     8   ar
     3     6     5   ar
     4    11     9    1
     5     8     9    1
     6     8     3   ar
     7     5     4   ar
     8     9     2    1
     9     3     4   ar
    10     3     1    1
    11     2    10    1
    12     2     1    1
    13    13    10    1
    14    10    12    1
    15     1    14    1
