@<TRIPOS>MOLECULE
/tmp/ewbell/vina_2fx6_2fx6_lig/vina/vina5.pdbqt
 14 15 0 0 0
SMALL
GASTEIGER

@<TRIPOS>ATOM
      1  N1        33.3960   -0.5220   26.6250 N.pl3 227  INH227     -0.3440
      2  C1        32.4610   -1.0170   25.8500 C.3   227  INH227      0.7370
      3  C2        33.9770   -1.5370   27.1850 C.ar  227  INH227      0.0570
      4  C3        35.0200   -1.5410   28.0820 C.ar  227  INH227      0.0310
      5  C4        35.4480   -2.8040   28.5150 C.ar  227  INH227      0.0020
      6  C5        34.8210   -3.9790   28.0420 C.ar  227  INH227      0.0020
      7  C6        33.7480   -3.9300   27.1120 C.ar  227  INH227      0.0310
      8  C7        33.3670   -2.6700   26.7180 C.ar  227  INH227      0.0570
      9  N2        32.4210   -2.3310   25.8910 N.pl3 227  INH227     -0.3440
     10  N3        31.7420   -0.2810   25.0560 N.3   227  INH227     -0.0820
     11  H5        31.7810   -2.9550   25.3810 H     227  INH227      0.1630
     12  H6        31.8300    0.7450   25.0820 H     227  INH227      0.2610
     13  H7        31.0840   -0.7230   24.3980 H     227  INH227      0.2610
     14  H8        33.6230    0.4730   26.7610 H     227  INH227      0.1630
@<TRIPOS>BOND
     1    13    10    1
     2    10    12    1
     3    10     2    1
     4    11     9    1
     5     2     9    1
     6     2     1    1
     7     9     8    1
     8     1    14    1
     9     1     3    1
    10     8     7   ar
    11     8     3   ar
    12     7     6   ar
    13     3     4   ar
    14     6     5   ar
    15     4     5   ar
