@<TRIPOS>MOLECULE
/tmp/ewbell/vina_2fx6_2fx6_lig/vina/vina2.pdbqt
 14 15 0 0 0
SMALL
GASTEIGER

@<TRIPOS>ATOM
      1  N1        44.3940   -2.1790   25.8950 N.pl3 227  INH227     -0.3440
      2  C1        44.0880   -3.3790   25.4650 C.3   227  INH227      0.7370
      3  C2        43.8990   -2.0850   27.0900 C.ar  227  INH227      0.0570
      4  C3        43.9520   -1.0200   27.9600 C.ar  227  INH227      0.0310
      5  C4        43.3280   -1.2130   29.2000 C.ar  227  INH227      0.0020
      6  C5        42.6880   -2.4350   29.5030 C.ar  227  INH227      0.0020
      7  C6        42.6590   -3.5120   28.5760 C.ar  227  INH227      0.0310
      8  C7        43.2850   -3.2750   27.3770 C.ar  227  INH227      0.0570
      9  N2        43.4070   -4.0700   26.3540 N.pl3 227  INH227     -0.3440
     10  N3        44.5150   -3.8520   24.3320 N.3   227  INH227     -0.0820
     11  H5        43.0480   -5.0300   26.2600 H     227  INH227      0.1630
     12  H6        45.0430   -3.2470   23.6870 H     227  INH227      0.2610
     13  H7        44.3260   -4.8330   24.0790 H     227  INH227      0.2610
     14  H8        44.9210   -1.4560   25.3850 H     227  INH227      0.1630
@<TRIPOS>BOND
     1    12    10    1
     2    13    10    1
     3    10     2    1
     4    14     1    1
     5     2     1    1
     6     2     9    1
     7     1     3    1
     8    11     9    1
     9     9     8    1
    10     3     8   ar
    11     3     4   ar
    12     8     7   ar
    13     4     5   ar
    14     7     6   ar
    15     5     6   ar
