@<TRIPOS>MOLECULE
./ligand/2i0d_lig.pdb
 84 87 0 0 0
SMALL
GASTEIGER

@<TRIPOS>ATOM
      1  O1        18.4710   33.3790   13.7330 O.2   203  INH203     -0.1528
      2  S1        17.9420   32.5070   14.7630 S.O2  203  INH203      0.0609
      3  O2        17.1760   31.4470   14.1620 O.2   203  INH203     -0.1528
      4  C1        17.0350   33.3960   15.7810 C.ar  203  INH203      0.1057
      5  C2        17.2940   34.7620   15.9630 C.ar  203  INH203     -0.0319
      6  C3        16.5620   35.5430   16.8590 C.ar  203  INH203     -0.0181
      7  C4        15.5670   34.9440   17.6510 C.ar  203  INH203      0.1202
      8  O3        14.8560   35.6510   18.5860 O.3   203  INH203     -0.4951
      9  C5        15.0380   37.0550   18.7950 C.3   203  INH203      0.0788
     10  C6        15.3200   33.5790   17.5070 C.ar  203  INH203     -0.0181
     11  C7        16.0550   32.8130   16.5880 C.ar  203  INH203     -0.0319
     12  N1        19.2180   31.8380   15.4990 N.3   203  INH203     -0.1738
     13  C8        19.9880   32.7990   16.3320 C.3   203  INH203      0.0229
     14  C9        21.4740   32.4330   16.3210 C.3   203  INH203     -0.0323
     15  C10       22.0630   32.3930   14.9120 C.3   203  INH203     -0.0615
     16  C11       22.2990   33.3860   17.1770 C.3   203  INH203     -0.0615
     17  C12       18.9360   30.5520   16.1620 C.3   203  INH203      0.0483
     18  C13       19.8300   29.4520   15.5710 C.3   203  INH203      0.0881
     19  O4        19.7600   28.2940   16.4230 O.3   203  INH203     -0.3886
     20  C14       19.3950   29.1670   14.1200 C.3   203  INH203      0.0543
     21  C15       18.0560   28.4150   14.0070 C.3   203  INH203     -0.0067
     22  C16       17.7680   28.0790   12.5480 C.ar  203  INH203     -0.0455
     23  C17       17.9540   26.7850   12.0510 C.ar  203  INH203     -0.0585
     24  C18       17.7220   26.4830   10.7180 C.ar  203  INH203     -0.0615
     25  C19       17.2760   27.4740    9.8470 C.ar  203  INH203     -0.0617
     26  C20       17.0940   28.7610   10.3340 C.ar  203  INH203     -0.0615
     27  C21       17.3350   29.0660   11.6750 C.ar  203  INH203     -0.0585
     28  N2        20.3400   28.3000   13.3950 N.am  203  INH203     -0.3065
     29  C22       21.0390   28.7550   12.3510 C.2   203  INH203      0.2559
     30  O5        21.0420   29.9310   12.0260 O.2   203  INH203     -0.2717
     31  C23       21.8480   27.7840   11.5280 C.3   203  INH203      0.1958
     32  O6        21.8360   26.4690   12.0840 O.3   203  INH203     -0.4356
     33  C24       21.4580   25.5680   11.0160 C.2   203  INH203      0.4081
     34  O7        21.5270   24.3660   11.2130 O.2   203  INH203     -0.2259
     35  C25       21.2060   27.6880   10.1210 C.3   203  INH203      0.0688
     36  N3        21.1320   26.2450    9.9100 N.am  203  INH203     -0.2333
     37  C26       20.7790   25.6650    8.6590 C.ar  203  INH203      0.0402
     38  C27       21.2180   24.3930    8.2840 C.ar  203  INH203     -0.0401
     39  C28       20.8490   23.8240    7.0610 C.ar  203  INH203     -0.0593
     40  C29       20.0400   24.5230    6.1780 C.ar  203  INH203     -0.0512
     41  C30       19.9680   26.3580    7.7500 C.ar  203  INH203     -0.0297
     42  C31       19.5970   25.7990    6.5280 C.ar  203  INH203      0.0189
     43  C32       18.6970   26.5940    5.5760 C.2   203  INH203      0.1602
     44  O8        18.3090   27.7060    5.9080 O.2   203  INH203     -0.2924
     45  C33       18.2950   25.9900    4.2650 C.3   203  INH203     -0.0014
     46  H1        18.0880   35.2260   15.3900 H     203  INH203      0.0638
     47  H2        16.7600   36.6050   16.9440 H     203  INH203      0.0655
     48  H3        14.3610   37.3980   19.5920 H     203  INH203      0.0660
     49  H4        14.8130   37.5970   17.8640 H     203  INH203      0.0660
     50  H5        16.0800   37.2500   19.0900 H     203  INH203      0.0660
     51  H6        14.5540   33.1050   18.1100 H     203  INH203      0.0655
     52  H7        15.8580   31.7500   16.5030 H     203  INH203      0.0638
     53  H8        19.6130   32.7660   17.3660 H     203  INH203      0.0446
     54  H9        19.8610   33.8140   15.9280 H     203  INH203      0.0446
     55  H10       21.5650   31.4250   16.7520 H     203  INH203      0.0308
     56  H11       23.1290   32.1260   14.9670 H     203  INH203      0.0233
     57  H12       21.9570   33.3820   14.4420 H     203  INH203      0.0233
     58  H13       21.5280   31.6420   14.3120 H     203  INH203      0.0233
     59  H14       21.8810   33.4210   18.1940 H     203  INH203      0.0233
     60  H15       22.2720   34.3930   16.7350 H     203  INH203      0.0233
     61  H16       23.3400   33.0330   17.2200 H     203  INH203      0.0233
     62  H17       17.8800   30.2860   16.0070 H     203  INH203      0.0470
     63  H18       19.1370   30.6450   17.2400 H     203  INH203      0.0470
     64  H19       20.8720   29.8060   15.5540 H     203  INH203      0.0625
     65  H20       18.8660   27.9750   16.4490 H     203  INH203      0.2099
     66  H21       19.3140   30.1350   13.6030 H     203  INH203      0.0527
     67  H22       17.2480   29.0490   14.4010 H     203  INH203      0.0332
     68  H23       18.1100   27.4850   14.5910 H     203  INH203      0.0332
     69  H24       18.2870   26.0020   12.7220 H     203  INH203      0.0620
     70  H25       17.8880   25.4760   10.3540 H     203  INH203      0.0618
     71  H26       17.0740   27.2440    8.8070 H     203  INH203      0.0618
     72  H27       16.7590   29.5430    9.6620 H     203  INH203      0.0618
     73  H28       17.1830   30.0770   12.0350 H     203  INH203      0.0620
     74  H29       20.4610   27.3520   13.6900 H     203  INH203      0.1492
     75  H30       22.8850   28.1440   11.4530 H     203  INH203      0.0849
     76  H31       21.8390   28.1700    9.3610 H     203  INH203      0.0511
     77  H32       20.2050   28.1440   10.1080 H     203  INH203      0.0511
     78  H33       21.8590   23.8340    8.9560 H     203  INH203      0.0636
     79  H34       21.1970   22.8310    6.8020 H     203  INH203      0.0618
     80  H35       19.7560   24.0840    5.2280 H     203  INH203      0.0625
     81  H36       19.6210   27.3530    8.0030 H     203  INH203      0.0643
     82  H37       17.6540   26.6970    3.7170 H     203  INH203      0.0309
     83  H38       17.7410   25.0570    4.4460 H     203  INH203      0.0309
     84  H39       19.1940   25.7730    3.6700 H     203  INH203      0.0309
@<TRIPOS>BOND
     1     1     2    2
     2     2    12    1
     3     2     4    1
     4     2     3    2
     5     4    11   ar
     6     4     5   ar
     7     5    46    1
     8     5     6   ar
     9     6    47    1
    10     6     7   ar
    11     7    10   ar
    12     7     8    1
    13     8     9    1
    14     9    50    1
    15     9    49    1
    16     9    48    1
    17    10    51    1
    18    10    11   ar
    19    11    52    1
    20    12    17    1
    21    12    13    1
    22    13    54    1
    23    13    53    1
    24    13    14    1
    25    14    55    1
    26    14    16    1
    27    14    15    1
    28    15    58    1
    29    15    57    1
    30    15    56    1
    31    16    61    1
    32    16    60    1
    33    16    59    1
    34    17    63    1
    35    17    62    1
    36    17    18    1
    37    18    64    1
    38    18    20    1
    39    18    19    1
    40    19    65    1
    41    20    66    1
    42    20    28    1
    43    20    21    1
    44    21    68    1
    45    21    67    1
    46    21    22    1
    47    22    27   ar
    48    22    23   ar
    49    23    69    1
    50    23    24   ar
    51    24    70    1
    52    24    25   ar
    53    25    71    1
    54    25    26   ar
    55    26    72    1
    56    26    27   ar
    57    27    73    1
    58    28    74    1
    59    28    29   am
    60    29    31    1
    61    29    30    2
    62    31    75    1
    63    31    35    1
    64    31    32    1
    65    32    33    1
    66    33    36   am
    67    33    34    2
    68    35    36    1
    69    35    77    1
    70    35    76    1
    71    36    37    1
    72    37    41   ar
    73    37    38   ar
    74    38    78    1
    75    38    39   ar
    76    39    79    1
    77    39    40   ar
    78    40    80    1
    79    40    42   ar
    80    41    42   ar
    81    41    81    1
    82    42    43    1
    83    43    45    1
    84    43    44    2
    85    45    84    1
    86    45    83    1
    87    45    82    1
