@<TRIPOS>MOLECULE
/tmp/ewbell/vina_2i0d_2i0d_lig/vina/vina4.pdbqt
 47 50 0 0 0
SMALL
GASTEIGER

@<TRIPOS>ATOM
      1  C14       20.1720   27.2620    9.9190 C.3   203  INH203      0.1180
      2  C13       19.2820   27.4410    8.6740 C.3   203  INH203      0.1550
      3  C12       18.6580   26.0890    8.2980 C.3   203  INH203      0.1410
      4  N1        18.8710   25.8180    6.8640 N.3   203  INH203     -0.2040
      5  S1        19.4910   24.3600    6.5410 S.O2  203  INH203      0.2430
      6  O1        19.1100   23.4970    7.6420 O.2   203  INH203     -0.2060
      7  O2        18.8930   23.8900    5.3190 O.2   203  INH203     -0.2060
      8  C1        21.1150   24.3860    6.4390 C.ar  203  INH203      0.0740
      9  C7        21.9040   23.4120    7.0560 C.ar  203  INH203      0.0270
     10  C6        23.3010   23.4090    6.9100 C.ar  203  INH203      0.0380
     11  C4        23.9350   24.3720    6.1250 C.ar  203  INH203      0.0680
     12  C3        23.1530   25.3500    5.4840 C.ar  203  INH203      0.0380
     13  C2        21.7650   25.3260    5.6260 C.ar  203  INH203      0.0270
     14  O3        25.2970   24.3140    5.9760 O.3   203  INH203     -0.3560
     15  C5        25.9230   23.9390    4.7460 C.3   203  INH203      0.2100
     16  C8        17.7150   26.1720    5.9990 C.3   203  INH203      0.1110
     17  C9        18.1600   27.1270    4.8890 C.3   203  INH203     -0.0090
     18  C11       17.9410   28.5850    5.2760 C.3   203  INH203      0.0110
     19  C10       17.4630   26.8550    3.5580 C.3   203  INH203      0.0110
     20  O4        18.2250   28.3990    8.8640 O.3   203  INH203     -0.3920
     21  H20       17.9640   28.4040    9.7770 H     203  INH203      0.2100
     22  N2        19.4030   27.2030   11.1740 N.am  203  INH203     -0.3510
     23  H29       18.7460   26.4610   11.3120 H     203  INH203      0.1630
     24  C22       19.5650   28.1200   12.1320 C.2   203  INH203      0.2490
     25  O5        18.9490   28.0850   13.1850 O.2   203  INH203     -0.2710
     26  C23       20.5340   29.2540   11.9090 C.3   203  INH203      0.2430
     27  C25       21.0930   29.6930   13.2850 C.3   203  INH203      0.1770
     28  N3        20.9450   31.1450   13.2320 N.am  203  INH203     -0.2910
     29  C24       20.2560   31.5320   12.1540 C.2   203  INH203      0.3680
     30  O6        19.9010   30.3950   11.3300 O.3   203  INH203     -0.2870
     31  O7        19.9540   32.6500   11.7700 O.2   203  INH203     -0.2380
     32  C26       21.5040   32.0140   14.2120 C.ar  203  INH203      0.0400
     33  C30       20.6850   32.6620   15.1460 C.ar  203  INH203      0.0440
     34  C31       21.2110   33.5300   16.1020 C.ar  203  INH203      0.0110
     35  C29       22.5850   33.7670   16.1520 C.ar  203  INH203      0.0150
     36  C28       23.4130   33.1280   15.2410 C.ar  203  INH203      0.0030
     37  C27       22.8770   32.2580   14.2860 C.ar  203  INH203      0.0300
     38  C32       20.2690   34.2240   17.0920 C.2   203  INH203      0.1550
     39  C33       20.8450   35.0340   18.2130 C.3   203  INH203      0.0960
     40  O8        19.0590   34.1180   16.9410 O.2   203  INH203     -0.2930
     41  C15       20.9770   25.9490    9.9270 C.3   203  INH203      0.0660
     42  C16       22.4550   26.2450   10.1560 C.ar  203  INH203     -0.0560
     43  C21       22.9420   26.4240   11.4420 C.ar  203  INH203      0.0070
     44  C20       24.3000   26.6710   11.6510 C.ar  203  INH203      0.0010
     45  C19       25.1880   26.7470   10.5860 C.ar  203  INH203      0.0000
     46  C18       24.7040   26.5560    9.2940 C.ar  203  INH203      0.0010
     47  C17       23.3550   26.3170    9.0870 C.ar  203  INH203      0.0070
@<TRIPOS>BOND
     1    19    17    1
     2    15    14    1
     3    17    18    1
     4    17    16    1
     5     7     5    2
     6    12    13   ar
     7    12    11   ar
     8    13     8   ar
     9    14    11    1
    10    16     4    1
    11    11    10   ar
    12     8     5    1
    13     8     9   ar
    14     5     4    1
    15     5     6    2
    16     4     3    1
    17    10     9   ar
    18     3     2    1
    19     2    20    1
    20     2     1    1
    21    20    21    1
    22    47    46   ar
    23    47    42   ar
    24    46    45   ar
    25     1    41    1
    26     1    22    1
    27    41    42    1
    28    42    43   ar
    29    45    44   ar
    30    22    23    1
    31    22    24   am
    32    30    26    1
    33    30    29    1
    34    43    44   ar
    35    31    29    2
    36    26    24    1
    37    26    27    1
    38    24    25    2
    39    29    28   am
    40    28    27    1
    41    28    32    1
    42    32    37   ar
    43    32    33   ar
    44    37    36   ar
    45    33    34   ar
    46    36    35   ar
    47    34    35   ar
    48    34    38    1
    49    40    38    2
    50    38    39    1
