@<TRIPOS>MOLECULE
/tmp/ewbell/vina_2i0d_2i0d_lig/vina/vina5.pdbqt
 47 50 0 0 0
SMALL
GASTEIGER

@<TRIPOS>ATOM
      1  C14       20.4260   26.4100   10.6670 C.3   203  INH203      0.1180
      2  C13       19.9730   25.5410    9.4770 C.3   203  INH203      0.1550
      3  C12       20.7020   25.9990    8.2070 C.3   203  INH203      0.1410
      4  N1        19.8610   25.7420    7.0230 N.3   203  INH203     -0.2040
      5  S1        20.2850   24.4340    6.1710 S.O2  203  INH203      0.2430
      6  O1        19.6210   23.3050    6.7920 O.2   203  INH203     -0.2060
      7  O2        19.7990   24.6100    4.8270 O.2   203  INH203     -0.2060
      8  C1        21.8900   24.1720    6.1950 C.ar  203  INH203      0.0740
      9  C7        22.7890   25.0750    5.6230 C.ar  203  INH203      0.0270
     10  C6        24.1760   24.8700    5.7040 C.ar  203  INH203      0.0380
     11  C4        24.6920   23.7630    6.3790 C.ar  203  INH203      0.0680
     12  C3        23.8010   22.8530    6.9760 C.ar  203  INH203      0.0380
     13  C2        22.4260   23.0840    6.9000 C.ar  203  INH203      0.0270
     14  O3        26.0520   23.6170    6.4690 O.3   203  INH203     -0.3560
     15  C5        26.7120   22.3690    6.2410 C.3   203  INH203      0.2100
     16  C8        18.3990   25.8290    7.2830 C.3   203  INH203      0.1110
     17  C9        17.8900   27.2360    6.9620 C.3   203  INH203     -0.0090
     18  C11       18.6160   27.8410    5.7660 C.3   203  INH203      0.0110
     19  C10       18.0020   28.1910    8.1480 C.3   203  INH203      0.0110
     20  O4        20.2250   24.1370    9.6720 O.3   203  INH203     -0.3920
     21  H20       20.1360   23.6830    8.8430 H     203  INH203      0.2100
     22  N2        19.3340   26.7100   11.6100 N.am  203  INH203     -0.3510
     23  H29       18.6290   26.0210   11.7780 H     203  INH203      0.1630
     24  C22       19.2680   27.8850   12.2440 C.2   203  INH203      0.2490
     25  O5        18.3810   28.1520   13.0380 O.2   203  INH203     -0.2710
     26  C23       20.3160   28.9330   11.9640 C.3   203  INH203      0.2430
     27  C25       20.8710   29.4390   13.3190 C.3   203  INH203      0.1770
     28  N3        20.8220   30.8890   13.1530 N.am  203  INH203     -0.2910
     29  C24       20.1860   31.2360   12.0300 C.2   203  INH203      0.3680
     30  O6        19.7740   30.0660   11.2840 O.3   203  INH203     -0.2870
     31  O7        19.9690   32.3380   11.5550 O.2   203  INH203     -0.2380
     32  C26       21.4150   31.7910   14.0810 C.ar  203  INH203      0.0400
     33  C30       20.6250   32.6750   14.8270 C.ar  203  INH203      0.0440
     34  C31       21.1880   33.5790   15.7270 C.ar  203  INH203      0.0110
     35  C29       22.5700   33.6140   15.9110 C.ar  203  INH203      0.0150
     36  C28       23.3700   32.7410   15.1880 C.ar  203  INH203      0.0030
     37  C27       22.7960   31.8370   14.2880 C.ar  203  INH203      0.0300
     38  C32       20.2780   34.5340   16.5070 C.2   203  INH203      0.1550
     39  C33       18.9220   34.0700   16.9440 C.3   203  INH203      0.0960
     40  O8        20.6810   35.6590   16.7730 O.2   203  INH203     -0.2930
     41  C15       21.4960   25.7460   11.5530 C.3   203  INH203      0.0660
     42  C16       22.8850   26.2090   11.1280 C.ar  203  INH203     -0.0560
     43  C21       23.5640   27.1600   11.8750 C.ar  203  INH203      0.0070
     44  C20       24.8470   27.5650   11.4970 C.ar  203  INH203      0.0010
     45  C19       25.4650   27.0330   10.3740 C.ar  203  INH203      0.0000
     46  C18       24.7900   26.0700    9.6280 C.ar  203  INH203      0.0010
     47  C17       23.5150   25.6730   10.0000 C.ar  203  INH203      0.0070
@<TRIPOS>BOND
     1     7     5    2
     2     9    10   ar
     3     9     8   ar
     4    10    11   ar
     5    18    17    1
     6     5     8    1
     7     5     6    2
     8     5     4    1
     9     8    13   ar
    10    15    14    1
    11    11    14    1
    12    11    12   ar
    13    13    12   ar
    14    17    16    1
    15    17    19    1
    16     4    16    1
    17     4     3    1
    18     3     2    1
    19    21    20    1
    20     2    20    1
    21     2     1    1
    22    46    47   ar
    23    46    45   ar
    24    47    42   ar
    25    45    44   ar
    26     1    41    1
    27     1    22    1
    28    42    41    1
    29    42    43   ar
    30    30    26    1
    31    30    29    1
    32    44    43   ar
    33    31    29    2
    34    22    23    1
    35    22    24   am
    36    26    24    1
    37    26    27    1
    38    29    28   am
    39    24    25    2
    40    28    27    1
    41    28    32    1
    42    32    37   ar
    43    32    33   ar
    44    37    36   ar
    45    33    34   ar
    46    36    35   ar
    47    34    35   ar
    48    34    38    1
    49    38    40    2
    50    38    39    1
