@<TRIPOS>MOLECULE
/tmp/ewbell/vina_2i0d_2i0d_lig/vina/vina2.pdbqt
 47 50 0 0 0
SMALL
GASTEIGER

@<TRIPOS>ATOM
      1  C14       21.1340   31.9810   15.6860 C.3   203  INH203      0.1180
      2  C13       21.8600   31.2540   14.5370 C.3   203  INH203      0.1550
      3  C12       20.9690   31.2670   13.2860 C.3   203  INH203      0.1410
      4  N1        20.5850   29.8890   12.9290 N.3   203  INH203     -0.2040
      5  S1        18.9940   29.5980   12.9890 S.O2  203  INH203      0.2430
      6  O1        18.7350   28.9920   14.2800 O.2   203  INH203     -0.2060
      7  O2        18.3140   30.8640   12.8960 O.2   203  INH203     -0.2060
      8  C1        18.5070   28.5720   11.8250 C.ar  203  INH203      0.0740
      9  C7        18.3530   27.2060   12.0700 C.ar  203  INH203      0.0270
     10  C6        17.8730   26.3380   11.0750 C.ar  203  INH203      0.0380
     11  C4        17.5180   26.8280    9.8180 C.ar  203  INH203      0.0680
     12  C3        17.6520   28.2040    9.5600 C.ar  203  INH203      0.0380
     13  C2        18.1140   29.0530   10.5670 C.ar  203  INH203      0.0270
     14  O3        17.0170   25.9560    8.8850 O.3   203  INH203     -0.3560
     15  C5        17.4620   25.9410    7.5260 C.3   203  INH203      0.2100
     16  C8        21.2310   29.3760   11.6910 C.3   203  INH203      0.1110
     17  C9        21.9120   28.0340   11.9700 C.3   203  INH203     -0.0090
     18  C11       23.3670   28.2130   12.3850 C.3   203  INH203      0.0110
     19  C10       21.8470   27.0800   10.7790 C.3   203  INH203      0.0110
     20  O4        23.1300   31.8450   14.2040 O.3   203  INH203     -0.3920
     21  H20       23.0220   32.4260   13.4610 H     203  INH203      0.2100
     22  N2        20.1660   31.1220   16.3910 N.am  203  INH203     -0.3510
     23  H29       20.4750   30.2540   16.7820 H     203  INH203      0.1630
     24  C22       18.8840   31.4780   16.5170 C.2   203  INH203      0.2490
     25  O5        18.0680   30.7900   17.1070 O.2   203  INH203     -0.2710
     26  C23       18.4160   32.7720   15.9000 C.3   203  INH203      0.2430
     27  C25       18.2710   33.8240   17.0280 C.3   203  INH203      0.1770
     28  N3        16.9520   34.3890   16.7590 N.am  203  INH203     -0.2910
     29  C24       16.3090   33.7090   15.8040 C.2   203  INH203      0.3680
     30  O6        17.1350   32.6400   15.2830 O.3   203  INH203     -0.2870
     31  O7        15.2100   33.8940   15.3080 O.2   203  INH203     -0.2380
     32  C26       16.4540   35.5400   17.4330 C.ar  203  INH203      0.0400
     33  C30       16.8630   36.8260   17.0530 C.ar  203  INH203      0.0440
     34  C31       16.4010   37.9640   17.7120 C.ar  203  INH203      0.0110
     35  C29       15.5020   37.8430   18.7720 C.ar  203  INH203      0.0150
     36  C28       15.0790   36.5800   19.1580 C.ar  203  INH203      0.0030
     37  C27       15.5470   35.4430   18.4900 C.ar  203  INH203      0.0300
     38  C32       16.8910   39.3460   17.2660 C.2   203  INH203      0.1550
     39  C33       16.1160   40.5660   17.6600 C.3   203  INH203      0.0960
     40  O8        17.9180   39.4320   16.6050 O.2   203  INH203     -0.2930
     41  C15       22.0710   32.4650   16.8080 C.3   203  INH203      0.0660
     42  C16       21.7990   33.9330   17.1170 C.ar  203  INH203     -0.0560
     43  C21       21.6970   34.3640   18.4310 C.ar  203  INH203      0.0070
     44  C20       21.4720   35.7130   18.7120 C.ar  203  INH203      0.0010
     45  C19       21.3410   36.6460   17.6930 C.ar  203  INH203      0.0000
     46  C18       21.4550   36.2190   16.3730 C.ar  203  INH203      0.0010
     47  C17       21.6720   34.8780   16.0940 C.ar  203  INH203      0.0070
@<TRIPOS>BOND
     1    15    14    1
     2    14    11    1
     3    12    11   ar
     4    12    13   ar
     5    11    10   ar
     6    13     8   ar
     7    19    17    1
     8    10     9   ar
     9    16    17    1
    10    16     4    1
    11     8     9   ar
    12     8     5    1
    13    17    18    1
    14     7     5    2
    15     4     5    1
    16     4     3    1
    17     5     6    2
    18     3     2    1
    19    21    20    1
    20    20     2    1
    21     2     1    1
    22    30    29    1
    23    30    26    1
    24    31    29    2
    25     1    22    1
    26     1    41    1
    27    29    28   am
    28    26    24    1
    29    26    27    1
    30    47    46   ar
    31    47    42   ar
    32    46    45   ar
    33    22    24   am
    34    22    23    1
    35    24    25    2
    36    40    38    2
    37    28    27    1
    38    28    32    1
    39    41    42    1
    40    33    32   ar
    41    33    34   ar
    42    42    43   ar
    43    38    39    1
    44    38    34    1
    45    32    37   ar
    46    45    44   ar
    47    34    35   ar
    48    43    44   ar
    49    37    36   ar
    50    35    36   ar
