@<TRIPOS>MOLECULE
/tmp/ewbell/vina_2i0d_2i0d_lig/vina/vina1.pdbqt
 47 50 0 0 0
SMALL
GASTEIGER

@<TRIPOS>ATOM
      1  C14       19.9810   31.2150   13.7540 C.3   203  INH203      0.1180
      2  C13       20.1100   30.9070   12.2490 C.3   203  INH203      0.1550
      3  C12       18.8720   30.1280   11.7820 C.3   203  INH203      0.1410
      4  N1        19.0910   28.6810   11.9600 N.3   203  INH203     -0.2040
      5  S1        17.7360   27.7990   12.0130 S.O2  203  INH203      0.2430
      6  O1        17.6050   27.3280   13.3780 O.2   203  INH203     -0.2060
      7  O2        16.6350   28.6670   11.6850 O.2   203  INH203     -0.2060
      8  C1        17.7970   26.5110   11.0210 C.ar  203  INH203      0.0740
      9  C7        18.0690   25.2280   11.5020 C.ar  203  INH203      0.0270
     10  C6        18.0570   24.1130   10.6470 C.ar  203  INH203      0.0380
     11  C4        17.7530   24.2610    9.2940 C.ar  203  INH203      0.0680
     12  C3        17.4600   25.5430    8.7970 C.ar  203  INH203      0.0380
     13  C2        17.4580   26.6360    9.6660 C.ar  203  INH203      0.0270
     14  O3        17.7150   23.1440    8.4980 O.3   203  INH203     -0.3560
     15  C5        16.6270   22.8640    7.6130 C.3   203  INH203      0.2100
     16  C8        20.1330   28.1080   11.0680 C.3   203  INH203      0.1110
     17  C9        21.1940   27.3800   11.8970 C.3   203  INH203     -0.0090
     18  C11       22.4360   28.2380   12.1070 C.3   203  INH203      0.0110
     19  C10       21.6090   26.0430   11.2860 C.3   203  INH203      0.0110
     20  O4        20.2460   32.0880   11.4380 O.3   203  INH203     -0.3920
     21  H20       20.0740   32.8560   11.9680 H     203  INH203      0.2100
     22  N2        18.7700   30.6330   14.3590 N.am  203  INH203     -0.3510
     23  H29       18.5820   29.6570   14.2400 H     203  INH203      0.1630
     24  C22       17.9160   31.3830   15.0630 C.2   203  INH203      0.2490
     25  O5        16.9140   30.9220   15.5830 O.2   203  INH203     -0.2710
     26  C23       18.1860   32.8590   15.2140 C.3   203  INH203      0.2430
     27  C25       17.4810   33.3520   16.5030 C.3   203  INH203      0.1770
     28  N3        16.7900   34.5520   16.0400 N.am  203  INH203     -0.2910
     29  C24       16.8630   34.6820   14.7120 C.2   203  INH203      0.3680
     30  O6        17.6500   33.6160   14.1280 O.3   203  INH203     -0.2870
     31  O7        16.4260   35.5550   13.9800 O.2   203  INH203     -0.2380
     32  C26       16.1500   35.4630   16.9270 C.ar  203  INH203      0.0400
     33  C30       16.7760   36.6600   17.3000 C.ar  203  INH203      0.0440
     34  C31       16.1740   37.5570   18.1810 C.ar  203  INH203      0.0110
     35  C29       14.9130   37.2790   18.7090 C.ar  203  INH203      0.0150
     36  C28       14.2730   36.1040   18.3460 C.ar  203  INH203      0.0030
     37  C27       14.8840   35.2100   17.4600 C.ar  203  INH203      0.0300
     38  C32       16.9090   38.8450   18.5680 C.2   203  INH203      0.1550
     39  C33       17.0330   39.9530   17.5670 C.3   203  INH203      0.0960
     40  O8        17.3720   38.9530   19.6960 O.2   203  INH203     -0.2930
     41  C15       21.1240   30.6380   14.6090 C.3   203  INH203      0.0660
     42  C16       21.9120   31.7700   15.2590 C.ar  203  INH203     -0.0560
     43  C21       23.0130   32.3150   14.6170 C.ar  203  INH203      0.0070
     44  C20       23.7180   33.3680   15.2040 C.ar  203  INH203      0.0010
     45  C19       23.3410   33.8860   16.4350 C.ar  203  INH203      0.0000
     46  C18       22.2290   33.3480   17.0780 C.ar  203  INH203      0.0010
     47  C17       21.5330   32.2990   16.4980 C.ar  203  INH203      0.0070
@<TRIPOS>BOND
     1    15    14    1
     2    14    11    1
     3    12    11   ar
     4    12    13   ar
     5    11    10   ar
     6    13     8   ar
     7    10     9   ar
     8     8     9   ar
     9     8     5    1
    10    16    17    1
    11    16     4    1
    12    19    17    1
    13    20    21    1
    14    20     2    1
    15     7     5    2
    16     3     4    1
    17     3     2    1
    18    17    18    1
    19     4     5    1
    20     5     6    2
    21     2     1    1
    22     1    22    1
    23     1    41    1
    24    31    29    2
    25    30    29    1
    26    30    26    1
    27    23    22    1
    28    22    24   am
    29    41    42    1
    30    43    44   ar
    31    43    42   ar
    32    29    28   am
    33    24    26    1
    34    24    25    2
    35    44    45   ar
    36    26    27    1
    37    42    47   ar
    38    28    27    1
    39    28    32    1
    40    45    46   ar
    41    47    46   ar
    42    32    33   ar
    43    32    37   ar
    44    33    34   ar
    45    37    36   ar
    46    39    38    1
    47    34    38    1
    48    34    35   ar
    49    36    35   ar
    50    38    40    2
