@<TRIPOS>MOLECULE
/tmp/ewbell/vina_2i0d_2i0d_lig/vina/vina3.pdbqt
 47 50 0 0 0
SMALL
GASTEIGER

@<TRIPOS>ATOM
      1  C14       19.2960   30.5810   14.0260 C.3   203  INH203      0.1180
      2  C13       19.3670   29.9210   12.6350 C.3   203  INH203      0.1550
      3  C12       18.8090   28.4930   12.7220 C.3   203  INH203      0.1410
      4  N1        19.7350   27.5510   12.0650 N.3   203  INH203     -0.2040
      5  S1        19.0140   26.4340   11.1450 S.O2  203  INH203      0.2430
      6  O1        19.7730   25.2110   11.3110 O.2   203  INH203     -0.2060
      7  O2        17.6750   26.2520   11.6440 O.2   203  INH203     -0.2060
      8  C1        19.0130   26.8360    9.5680 C.ar  203  INH203      0.0740
      9  C7        19.8130   26.1660    8.6400 C.ar  203  INH203      0.0270
     10  C6        19.7590   26.4800    7.2720 C.ar  203  INH203      0.0380
     11  C4        18.8850   27.4610    6.8040 C.ar  203  INH203      0.0680
     12  C3        18.0600   28.1330    7.7230 C.ar  203  INH203      0.0380
     13  C2        18.1150   27.7950    9.0760 C.ar  203  INH203      0.0270
     14  O3        18.8330   27.7130    5.4570 O.3   203  INH203     -0.3560
     15  C5        17.6180   28.0480    4.7800 C.3   203  INH203      0.2100
     16  C8        20.8970   28.2000   11.4030 C.3   203  INH203      0.1110
     17  C9        22.2020   27.5620   11.8860 C.3   203  INH203     -0.0090
     18  C11       23.0610   28.5500   12.6660 C.3   203  INH203      0.0110
     19  C10       23.0300   26.9730   10.7460 C.3   203  INH203      0.0110
     20  O4        18.6350   30.6420   11.6270 O.3   203  INH203     -0.3920
     21  H20       19.0770   30.5540   10.7920 H     203  INH203      0.2100
     22  N2        18.0720   30.2320   14.7680 N.am  203  INH203     -0.3510
     23  H29       17.7350   29.2900   14.7420 H     203  INH203      0.1630
     24  C22       17.4020   31.1480   15.4730 C.2   203  INH203      0.2490
     25  O5        16.3930   30.8810   16.1050 O.2   203  INH203     -0.2710
     26  C23       17.8960   32.5730   15.4840 C.3   203  INH203      0.2430
     27  C25       17.4150   33.2430   16.7960 C.3   203  INH203      0.1770
     28  N3        16.8560   34.5040   16.3140 N.am  203  INH203     -0.2910
     29  C24       16.8010   34.5410   14.9790 C.2   203  INH203      0.3680
     30  O6        17.3590   33.3360   14.4030 O.3   203  INH203     -0.2870
     31  O7        16.4170   35.4240   14.2300 O.2   203  INH203     -0.2380
     32  C26       16.4550   35.5530   17.1880 C.ar  203  INH203      0.0400
     33  C30       17.3180   36.6200   17.4720 C.ar  203  INH203      0.0440
     34  C31       16.9500   37.6480   18.3390 C.ar  203  INH203      0.0110
     35  C29       15.6930   37.6380   18.9440 C.ar  203  INH203      0.0150
     36  C28       14.8210   36.5950   18.6690 C.ar  203  INH203      0.0030
     37  C27       15.1980   35.5680   17.7960 C.ar  203  INH203      0.0300
     38  C32       17.9380   38.7840   18.6270 C.2   203  INH203      0.1550
     39  C33       18.0640   39.9160   17.6530 C.3   203  INH203      0.0960
     40  O8        18.6000   38.7540   19.6560 O.2   203  INH203     -0.2930
     41  C15       20.4280   30.1520   14.9780 C.3   203  INH203      0.0660
     42  C16       21.3650   31.3270   15.2380 C.ar  203  INH203     -0.0560
     43  C21       21.3000   32.0220   16.4360 C.ar  203  INH203      0.0070
     44  C20       22.1740   33.0830   16.6810 C.ar  203  INH203      0.0010
     45  C19       23.1180   33.4670   15.7380 C.ar  203  INH203      0.0000
     46  C18       23.1930   32.7640   14.5380 C.ar  203  INH203      0.0010
     47  C17       22.3200   31.7160   14.2930 C.ar  203  INH203      0.0070
@<TRIPOS>BOND
     1    15    14    1
     2    14    11    1
     3    11    10   ar
     4    11    12   ar
     5    10     9   ar
     6    12    13   ar
     7     9     8   ar
     8    13     8   ar
     9     8     5    1
    10    19    17    1
    11    21    20    1
    12     5     6    2
    13     5     7    2
    14     5     4    1
    15    16    17    1
    16    16     4    1
    17    20     2    1
    18    17    18    1
    19     4     3    1
    20     2     3    1
    21     2     1    1
    22     1    22    1
    23     1    41    1
    24    31    29    2
    25    47    46   ar
    26    47    42   ar
    27    30    29    1
    28    30    26    1
    29    46    45   ar
    30    23    22    1
    31    22    24   am
    32    41    42    1
    33    29    28   am
    34    42    43   ar
    35    24    26    1
    36    24    25    2
    37    26    27    1
    38    45    44   ar
    39    28    27    1
    40    28    32    1
    41    43    44   ar
    42    32    33   ar
    43    32    37   ar
    44    33    34   ar
    45    39    38    1
    46    37    36   ar
    47    34    38    1
    48    34    35   ar
    49    38    40    2
    50    36    35   ar
