@<TRIPOS>MOLECULE
./ligand/2jfz_lig.pdb
 58 62 0 0 0
SMALL
GASTEIGER

@<TRIPOS>ATOM
      1  C1        15.2290   56.5040   36.3360 C.ar  510  INH510      0.3333
      2  O1        15.8720   55.5530   35.8830 O.2   510  INH510     -0.2462
      3  N1        15.3470   56.8320   37.6800 N.ar  510  INH510     -0.2760
      4  C2        16.2440   56.0660   38.5740 C.3   510  INH510      0.0318
      5  C3        17.6320   56.7140   38.8440 C.3   510  INH510     -0.0285
      6  C4        18.5760   56.4430   37.6570 C.3   510  INH510     -0.0610
      7  C5        18.2830   56.1350   40.1160 C.3   510  INH510     -0.0610
      8  C6        14.6360   57.8910   38.1810 C.ar  510  INH510      0.1721
      9  N2        14.6280   58.3440   39.3610 N.ar  510  INH510     -0.1516
     10  N3        13.7870   59.4040   39.4180 N.ar  510  INH510     -0.2566
     11  C7        13.5740   60.2010   40.6520 C.3   510  INH510      0.0678
     12  C8        14.1770   61.6150   40.3650 C.ar  510  INH510     -0.0184
     13  C9        15.5740   61.7870   40.0200 C.ar  510  INH510     -0.0130
     14  C10       16.4910   60.6780   39.9500 C.ar  510  INH510     -0.0537
     15  C11       17.8540   60.8790   39.6030 C.ar  510  INH510     -0.0612
     16  C12       18.3240   62.1920   39.3150 C.ar  510  INH510     -0.0612
     17  C13       17.4370   63.3040   39.3770 C.ar  510  INH510     -0.0540
     18  C14       16.0710   63.1120   39.7270 C.ar  510  INH510     -0.0176
     19  C15       15.1980   64.2320   39.7830 C.ar  510  INH510     -0.0540
     20  C16       13.8290   64.0560   40.1290 C.ar  510  INH510     -0.0609
     21  C17       13.3220   62.7610   40.4170 C.ar  510  INH510     -0.0562
     22  C18       13.2240   59.6150   38.2190 C.ar  510  INH510      0.0838
     23  C19       12.2140   60.7220   37.8800 C.ar  510  INH510      0.0037
     24  C20       10.9020   60.6830   38.4430 C.ar  510  INH510     -0.0344
     25  C21        9.9810   61.7180   38.1390 C.ar  510  INH510      0.0282
     26  N4        10.3560   62.7480   37.3100 N.ar  510  INH510     -0.2632
     27  C22       11.6090   62.8120   36.7530 C.ar  510  INH510      0.0282
     28  C23       12.5640   61.8050   37.0240 C.ar  510  INH510     -0.0344
     29  C24       13.7220   58.6990   37.3720 C.ar  510  INH510      0.1092
     30  C25       13.6200   58.3110   35.9470 C.ar  510  INH510      0.2677
     31  O2        12.8810   58.9410   35.2110 O.2   510  INH510     -0.2667
     32  N5        14.3710   57.2390   35.5210 N.ar  510  INH510     -0.2633
     33  C26       14.2670   56.8690   34.1040 C.3   510  INH510      0.0196
     34  H1        16.4130   55.0790   38.1190 H     510  INH510      0.0496
     35  H2        15.7340   55.9420   39.5410 H     510  INH510      0.0496
     36  H3        17.5000   57.7990   38.9670 H     510  INH510      0.0313
     37  H4        19.5550   56.9040   37.8550 H     510  INH510      0.0233
     38  H5        18.1460   56.8740   36.7410 H     510  INH510      0.0233
     39  H6        18.7010   55.3580   37.5280 H     510  INH510      0.0233
     40  H7        17.6260   56.3170   40.9790 H     510  INH510      0.0233
     41  H8        19.2540   56.6230   40.2850 H     510  INH510      0.0233
     42  H9        18.4330   55.0530   39.9910 H     510  INH510      0.0233
     43  H10       14.0890   59.7320   41.5030 H     510  INH510      0.0559
     44  H11       12.5000   60.2820   40.8730 H     510  INH510      0.0559
     45  H12       16.1360   59.6760   40.1650 H     510  INH510      0.0624
     46  H13       18.5340   60.0360   39.5580 H     510  INH510      0.0618
     47  H14       19.3630   62.3460   39.0470 H     510  INH510      0.0618
     48  H15       17.8030   64.3000   39.1570 H     510  INH510      0.0624
     49  H16       15.5760   65.2230   39.5610 H     510  INH510      0.0624
     50  H17       13.1690   64.9150   40.1730 H     510  INH510      0.0618
     51  H18       12.2770   62.6400   40.6790 H     510  INH510      0.0621
     52  H19       10.6120   59.8690   39.0970 H     510  INH510      0.0639
     53  H20        8.9820   61.6970   38.5600 H     510  INH510      0.0830
     54  H21       11.8680   63.6390   36.1020 H     510  INH510      0.0830
     55  H22       13.5530   61.8570   36.5840 H     510  INH510      0.0639
     56  H23       14.9150   56.0030   33.9030 H     510  INH510      0.0458
     57  H24       14.5840   57.7170   33.4790 H     510  INH510      0.0458
     58  H25       13.2240   56.6100   33.8680 H     510  INH510      0.0458
@<TRIPOS>BOND
     1     1    32   ar
     2     1     3   ar
     3     1     2    2
     4     3     8   ar
     5     3     4    1
     6     4    35    1
     7     4    34    1
     8     4     5    1
     9     5    36    1
    10     5     7    1
    11     5     6    1
    12     6    39    1
    13     6    38    1
    14     6    37    1
    15     7    42    1
    16     7    41    1
    17     7    40    1
    18     8    29   ar
    19     8     9   ar
    20     9    10   ar
    21    10    22   ar
    22    10    11    1
    23    11    44    1
    24    11    43    1
    25    11    12    1
    26    12    21   ar
    27    12    13   ar
    28    13    18   ar
    29    13    14   ar
    30    14    45    1
    31    14    15   ar
    32    15    46    1
    33    15    16   ar
    34    16    47    1
    35    16    17   ar
    36    17    48    1
    37    17    18   ar
    38    18    19   ar
    39    19    49    1
    40    19    20   ar
    41    20    50    1
    42    20    21   ar
    43    21    51    1
    44    22    29   ar
    45    22    23    1
    46    23    28   ar
    47    23    24   ar
    48    24    52    1
    49    24    25   ar
    50    25    53    1
    51    25    26   ar
    52    26    27   ar
    53    27    54    1
    54    27    28   ar
    55    28    55    1
    56    29    30   ar
    57    30    32   ar
    58    30    31    2
    59    32    33    1
    60    33    58    1
    61    33    57    1
    62    33    56    1
