@<TRIPOS>MOLECULE
/tmp/ewbell/vina_2jfz_2jfz_lig/vina/vina2.pdbqt
 35 39 0 0 0
SMALL
GASTEIGER

@<TRIPOS>ATOM
      1  C1        15.6270   56.0540   35.4490 C.ar  510  INH510      0.3320
      2  O1        16.2340   55.1410   34.8850 O.2   510  INH510     -0.2460
      3  N1        15.8700   56.3110   36.7920 N.ar  510  INH510     -0.2830
      4  C6        15.1980   57.3280   37.4170 C.ar  510  INH510      0.1440
      5  N2        15.2980   57.7160   38.6160 N.pl3 510  INH510     -0.2810
      6  H2        15.9140   57.3110   39.3210 H     510  INH510      0.1890
      7  N3        14.4540   58.7570   38.8120 N.3   510  INH510     -0.2840
      8  C18       13.7760   59.0240   37.6860 C.3   510  INH510      0.0810
      9  C24       14.2010   58.1640   36.7450 C.ar  510  INH510      0.1070
     10  C25       13.9670   57.8520   35.3170 C.ar  510  INH510      0.2670
     11  O2        13.1530   58.5090   34.6910 O.2   510  INH510     -0.2670
     12  N5        14.6860   56.8180   34.7620 N.ar  510  INH510     -0.2700
     13  C26       14.4500   56.5240   33.3430 C.3   510  INH510      0.1640
     14  C7        14.3510   59.4820   40.1030 C.3   510  INH510      0.1880
     15  C8        15.1660   60.8050   39.9240 C.ar  510  INH510     -0.0270
     16  C17       16.5770   60.7290   39.6990 C.ar  510  INH510      0.0100
     17  C16       17.3530   61.9090   39.5660 C.ar  510  INH510      0.0020
     18  C15       16.7370   63.1900   39.6550 C.ar  510  INH510      0.0120
     19  C14       15.3380   63.2950   39.8740 C.ar  510  INH510     -0.0250
     20  C9        14.5300   62.1040   40.0090 C.ar  510  INH510     -0.0180
     21  C13       14.7370   64.5820   39.9620 C.ar  510  INH510      0.0120
     22  C10       13.1160   62.2540   40.2320 C.ar  510  INH510      0.0130
     23  C11       12.5220   63.5430   40.3170 C.ar  510  INH510      0.0010
     24  C12       13.3350   64.7050   40.1840 C.ar  510  INH510      0.0010
     25  C19       12.7250   60.1300   37.5070 C.3   510  INH510     -0.0040
     26  C23       11.4280   60.0170   38.0850 C.2   510  INH510      0.0310
     27  C22       10.4860   61.0520   37.8800 C.2   510  INH510      0.0880
     28  N4        10.8160   62.1540   37.1310 N.pl3 510  INH510     -0.3750
     29  C21       12.0570   62.2980   36.5590 C.2   510  INH510      0.0880
     30  H4        10.1200   62.8870   36.9940 H     510  INH510      0.1640
     31  C20       13.0380   61.2900   36.7340 C.2   510  INH510      0.0310
     32  C2        16.8570   55.5120   37.5520 C.3   510  INH510      0.1390
     33  C3        16.2610   54.3990   38.4600 C.3   510  INH510     -0.0040
     34  C5        16.3900   53.0100   37.8030 C.3   510  INH510      0.0110
     35  C4        17.0110   54.3630   39.8060 C.3   510  INH510      0.0110
@<TRIPOS>BOND
     1    13    12    1
     2    11    10    2
     3    12    10   ar
     4    12     1   ar
     5     2     1    2
     6    10     9   ar
     7     1     3   ar
     8    29    31    2
     9    29    28    1
    10    31    25    1
    11     9     4   ar
    12     9     8    1
    13     3     4   ar
    14     3    32    1
    15    30    28    1
    16    28    27    1
    17     4     5    1
    18    25     8    1
    19    25    26    1
    20    32    33    1
    21     8     7    1
    22    34    33    1
    23    27    26    2
    24    33    35    1
    25     5     7    1
    26     5     6    1
    27     7    14    1
    28    17    18   ar
    29    17    16   ar
    30    18    19   ar
    31    16    15   ar
    32    19    21   ar
    33    19    20   ar
    34    15    20   ar
    35    15    14    1
    36    21    24   ar
    37    20    22   ar
    38    24    23   ar
    39    22    23   ar
