@<TRIPOS>MOLECULE
/tmp/ewbell/vina_2jfz_2jfz_lig/vina/vina3.pdbqt
 35 39 0 0 0
SMALL
GASTEIGER

@<TRIPOS>ATOM
      1  C1        13.5670   57.6950   34.4160 C.ar  510  INH510      0.3320
      2  O1        12.9260   57.7640   33.3630 O.2   510  INH510     -0.2460
      3  N1        13.2290   58.5210   35.4790 N.ar  510  INH510     -0.2830
      4  C6        13.9380   58.4400   36.6490 C.ar  510  INH510      0.1440
      5  N2        13.7680   59.0920   37.7180 N.pl3 510  INH510     -0.2810
      6  H2        13.0540   59.8040   37.8710 H     510  INH510      0.1890
      7  N3        14.6890   58.6930   38.6270 N.3   510  INH510     -0.2840
      8  C18       15.4900   57.7570   38.0960 C.3   510  INH510      0.0810
      9  C24       15.0700   57.5310   36.8400 C.ar  510  INH510      0.1070
     10  C25       15.4010   56.6730   35.6800 C.ar  510  INH510      0.2670
     11  O2        16.3290   55.8880   35.7670 O.2   510  INH510     -0.2670
     12  N5        14.6370   56.8120   34.5430 N.ar  510  INH510     -0.2700
     13  C26       14.9710   55.9500   33.4020 C.3   510  INH510      0.1640
     14  C7        14.7450   59.2290   40.0100 C.3   510  INH510      0.1880
     15  C8        15.3780   60.6550   39.8980 C.ar  510  INH510     -0.0270
     16  C17       16.8020   60.7830   39.8500 C.ar  510  INH510      0.0100
     17  C16       17.4110   62.0630   39.7820 C.ar  510  INH510      0.0020
     18  C15       16.6110   63.2410   39.7600 C.ar  510  INH510      0.0120
     19  C14       15.1950   63.1420   39.8020 C.ar  510  INH510     -0.0250
     20  C9        14.5560   61.8480   39.8690 C.ar  510  INH510     -0.0180
     21  C13       14.4090   64.3290   39.7820 C.ar  510  INH510      0.0120
     22  C10       13.1180   61.7920   39.9120 C.ar  510  INH510      0.0130
     23  C11       12.3390   62.9810   39.8890 C.ar  510  INH510      0.0010
     24  C12       12.9870   64.2480   39.8260 C.ar  510  INH510      0.0010
     25  C19       16.6570   57.0580   38.8110 C.3   510  INH510     -0.0040
     26  C23       16.4290   56.1620   39.8940 C.2   510  INH510      0.0310
     27  C22       17.5340   55.5550   40.5350 C.2   510  INH510      0.0880
     28  N4        18.8140   55.8260   40.1190 N.pl3 510  INH510     -0.3750
     29  C21       19.0720   56.6840   39.0770 C.2   510  INH510      0.0880
     30  H4        19.5950   55.3780   40.5970 H     510  INH510      0.1640
     31  C20       18.0000   57.3190   38.4000 C.2   510  INH510      0.0310
     32  C2        12.1030   59.4750   35.3730 C.3   510  INH510      0.1390
     33  C3        12.1640   60.6930   36.3370 C.3   510  INH510     -0.0040
     34  C5        12.8130   61.9160   35.6570 C.3   510  INH510      0.0110
     35  C4        10.7400   61.0890   36.7740 C.3   510  INH510      0.0110
@<TRIPOS>BOND
     1     2     1    2
     2    13    12    1
     3     1    12   ar
     4     1     3   ar
     5    12    10   ar
     6    32     3    1
     7    32    33    1
     8     3     4   ar
     9    34    33    1
    10    10    11    2
    11    10     9   ar
    12    33    35    1
    13     4     9   ar
    14     4     5    1
    15     9     8    1
    16     5     6    1
    17     5     7    1
    18     8     7    1
    19     8    25    1
    20    31    25    1
    21    31    29    2
    22     7    14    1
    23    25    26    1
    24    29    28    1
    25    18    17   ar
    26    18    19   ar
    27    17    16   ar
    28    21    19   ar
    29    21    24   ar
    30    19    20   ar
    31    24    23   ar
    32    16    15   ar
    33    20    15   ar
    34    20    22   ar
    35    23    22   ar
    36    26    27    2
    37    15    14    1
    38    28    27    1
    39    28    30    1
