@<TRIPOS>MOLECULE
/tmp/ewbell/vina_2jfz_2jfz_lig/vina/vina1.pdbqt
 35 39 0 0 0
SMALL
GASTEIGER

@<TRIPOS>ATOM
      1  C1        15.5910   56.3980   36.1090 C.ar  510  INH510      0.3320
      2  O1        16.2830   55.4940   35.6320 O.2   510  INH510     -0.2460
      3  N1        15.6660   56.6730   37.4680 N.ar  510  INH510     -0.2830
      4  C6        14.9010   57.6790   37.9960 C.ar  510  INH510      0.1440
      5  N2        14.8480   58.0810   39.1930 N.pl3 510  INH510     -0.2810
      6  H2        15.3850   57.6990   39.9710 H     510  INH510      0.1890
      7  N3        13.9620   59.1020   39.2740 N.3   510  INH510     -0.2840
      8  C18       13.4170   59.3410   38.0730 C.3   510  INH510      0.0810
      9  C24       13.9710   58.4830   37.2000 C.ar  510  INH510      0.1070
     10  C25       13.9160   58.1520   35.7580 C.ar  510  INH510      0.2670
     11  O2        13.1670   58.7810   35.0320 O.2   510  INH510     -0.2670
     12  N5        14.7210   57.1310   35.3060 N.ar  510  INH510     -0.2700
     13  C26       14.6630   56.8170   33.8720 C.3   510  INH510      0.1640
     14  C7        13.6890   59.8370   40.5350 C.3   510  INH510      0.1880
     15  C8        14.1420   61.3130   40.2840 C.ar  510  INH510     -0.0270
     16  C17       13.1690   62.3600   40.3440 C.ar  510  INH510      0.0100
     17  C16       13.5370   63.7060   40.0890 C.ar  510  INH510      0.0020
     18  C15       14.8850   64.0350   39.7680 C.ar  510  INH510      0.0120
     19  C14       15.8730   63.0160   39.7050 C.ar  510  INH510     -0.0250
     20  C9        15.5170   61.6400   39.9650 C.ar  510  INH510     -0.0180
     21  C13       17.2150   63.3600   39.3810 C.ar  510  INH510      0.0120
     22  C10       16.5480   60.6370   39.8890 C.ar  510  INH510      0.0130
     23  C11       17.8870   60.9890   39.5680 C.ar  510  INH510      0.0010
     24  C12       18.2170   62.3500   39.3120 C.ar  510  INH510      0.0010
     25  C19       12.3690   60.4190   37.7560 C.3   510  INH510     -0.0040
     26  C23       12.7060   61.5780   37.0010 C.2   510  INH510      0.0310
     27  C22       11.7140   62.5540   36.7490 C.2   510  INH510      0.0880
     28  N4        10.4380   62.3870   37.2280 N.pl3 510  INH510     -0.3750
     29  C21       10.0750   61.2810   37.9580 C.2   510  INH510      0.0880
     30  H4         9.7390   63.1040   37.0350 H     510  INH510      0.1640
     31  C20       11.0320   60.2730   38.2390 C.2   510  INH510      0.0310
     32  C2        16.5750   55.9070   38.3500 C.3   510  INH510      0.1390
     33  C3        17.8490   56.6660   38.8190 C.3   510  INH510     -0.0040
     34  C5        18.3640   56.1200   40.1660 C.3   510  INH510      0.0110
     35  C4        18.9710   56.5030   37.7750 C.3   510  INH510      0.0110
@<TRIPOS>BOND
     1    13    12    1
     2    11    10    2
     3    12    10   ar
     4    12     1   ar
     5     2     1    2
     6    10     9   ar
     7     1     3   ar
     8    27    26    2
     9    27    28    1
    10    26    25    1
    11    30    28    1
    12     9     4   ar
    13     9     8    1
    14    28    29    1
    15     3     4   ar
    16     3    32    1
    17    25     8    1
    18    25    31    1
    19    35    33    1
    20    29    31    2
    21     4     5    1
    22     8     7    1
    23    32    33    1
    24    33    34    1
    25     5     7    1
    26     5     6    1
    27     7    14    1
    28    24    21   ar
    29    24    23   ar
    30    21    19   ar
    31    23    22   ar
    32    19    18   ar
    33    19    20   ar
    34    18    17   ar
    35    22    20   ar
    36    20    15   ar
    37    17    16   ar
    38    15    16   ar
    39    15    14    1
