@<TRIPOS>MOLECULE
/tmp/ewbell/vina_2jfz_2jfz_lig/vina/vina5.pdbqt
 35 39 0 0 0
SMALL
GASTEIGER

@<TRIPOS>ATOM
      1  C1        10.6990   62.3090   39.0220 C.ar  510  INH510      0.3320
      2  O1        11.2670   61.2670   38.6800 O.2   510  INH510     -0.2460
      3  N1        11.4200   63.3000   39.6720 N.ar  510  INH510     -0.2830
      4  C6        10.7900   64.4580   40.0470 C.ar  510  INH510      0.1440
      5  N2        11.2810   65.4680   40.6270 N.pl3 510  INH510     -0.2810
      6  H2        12.2540   65.5720   40.9160 H     510  INH510      0.1890
      7  N3        10.3050   66.3900   40.8040 N.3   510  INH510     -0.2840
      8  C18        9.1390   65.9280   40.3280 C.3   510  INH510      0.0810
      9  C24        9.3650   64.7070   39.8180 C.ar  510  INH510      0.1070
     10  C25        8.6320   63.6210   39.1280 C.ar  510  INH510      0.2670
     11  O2         7.4430   63.7590   38.9000 O.2   510  INH510     -0.2670
     12  N5         9.3390   62.4930   38.7800 N.ar  510  INH510     -0.2700
     13  C26        8.6020   61.4270   38.0900 C.3   510  INH510      0.1640
     14  C7        10.5500   67.7180   41.4190 C.3   510  INH510      0.1880
     15  C8        10.5640   67.4840   42.9660 C.ar  510  INH510     -0.0270
     16  C17        9.3200   67.3710   43.6640 C.ar  510  INH510      0.0100
     17  C16        9.2950   67.1910   45.0720 C.ar  510  INH510      0.0020
     18  C15       10.5100   67.1220   45.8110 C.ar  510  INH510      0.0120
     19  C14       11.7590   67.2270   45.1420 C.ar  510  INH510     -0.0250
     20  C9        11.8050   67.4070   43.7090 C.ar  510  INH510     -0.0180
     21  C13       12.9650   67.1580   45.8950 C.ar  510  INH510      0.0120
     22  C10       13.0910   67.5120   43.0710 C.ar  510  INH510      0.0130
     23  C11       14.2910   67.4380   43.8280 C.ar  510  INH510      0.0010
     24  C12       14.2260   67.2640   45.2400 C.ar  510  INH510      0.0010
     25  C19        7.7980   66.6790   40.3450 C.3   510  INH510     -0.0040
     26  C23        7.5150   67.7080   39.4020 C.2   510  INH510      0.0310
     27  C22        6.2750   68.3850   39.4660 C.2   510  INH510      0.0880
     28  N4         5.3530   68.0560   40.4280 N.pl3 510  INH510     -0.3750
     29  C21        5.5900   67.0680   41.3530 C.2   510  INH510      0.0880
     30  H4         4.4660   68.5590   40.4560 H     510  INH510      0.1640
     31  C20        6.8170   66.3590   41.3330 C.2   510  INH510      0.0310
     32  C2        12.8640   63.1320   39.9500 C.3   510  INH510      0.1390
     33  C3        13.8230   63.8840   38.9840 C.3   510  INH510     -0.0040
     34  C5        15.0560   64.4330   39.7310 C.3   510  INH510      0.0110
     35  C4        14.3180   62.9250   37.8850 C.3   510  INH510      0.0110
@<TRIPOS>BOND
     1    35    33    1
     2    13    12    1
     3     2     1    2
     4    12     1   ar
     5    12    10   ar
     6    11    10    2
     7    33    34    1
     8    33    32    1
     9     1     3   ar
    10    10     9   ar
    11    26    27    2
    12    26    25    1
    13    27    28    1
    14     3    32    1
    15     3     4   ar
    16     9     4   ar
    17     9     8    1
    18     4     5    1
    19     8    25    1
    20     8     7    1
    21    25    31    1
    22    28    30    1
    23    28    29    1
    24     5     7    1
    25     5     6    1
    26     7    14    1
    27    31    29    2
    28    14    15    1
    29    15    16   ar
    30    15    20   ar
    31    22    20   ar
    32    22    23   ar
    33    16    17   ar
    34    20    19   ar
    35    23    24   ar
    36    17    18   ar
    37    19    18   ar
    38    19    21   ar
    39    24    21   ar
