@<TRIPOS>MOLECULE
/tmp/ewbell/vina_2jfz_2jfz_lig/vina/vina4.pdbqt
 35 39 0 0 0
SMALL
GASTEIGER

@<TRIPOS>ATOM
      1  C1        13.5380   57.8000   34.3620 C.ar  510  INH510      0.3320
      2  O1        12.9360   57.9080   33.2910 O.2   510  INH510     -0.2460
      3  N1        13.1210   58.5420   35.4600 N.ar  510  INH510     -0.2830
      4  C6        13.7880   58.4170   36.6510 C.ar  510  INH510      0.1440
      5  N2        13.5460   58.9920   37.7500 N.pl3 510  INH510     -0.2810
      6  H2        12.7940   59.6600   37.9170 H     510  INH510      0.1890
      7  N3        14.4490   58.5770   38.6700 N.3   510  INH510     -0.2840
      8  C18       15.3130   57.7140   38.1160 C.3   510  INH510      0.0810
      9  C24       14.9530   57.5490   36.8320 C.ar  510  INH510      0.1070
     10  C25       15.3680   56.7830   35.6360 C.ar  510  INH510      0.2670
     11  O2        16.3280   56.0360   35.7130 O.2   510  INH510     -0.2670
     12  N5        14.6430   56.9600   34.4790 N.ar  510  INH510     -0.2700
     13  C26       15.0610   56.1880   33.3020 C.3   510  INH510      0.1640
     14  C7        14.4260   59.0260   40.0850 C.3   510  INH510      0.1880
     15  C8        14.3200   60.5860   40.0430 C.ar  510  INH510     -0.0270
     16  C17       13.0380   61.2020   40.1980 C.ar  510  INH510      0.0100
     17  C16       12.9010   62.6130   40.1320 C.ar  510  INH510      0.0020
     18  C15       14.0400   63.4380   39.9110 C.ar  510  INH510      0.0120
     19  C14       15.3260   62.8530   39.7580 C.ar  510  INH510     -0.0250
     20  C9        15.4860   61.4180   39.8250 C.ar  510  INH510     -0.0180
     21  C13       16.4550   63.6910   39.5360 C.ar  510  INH510      0.0120
     22  C10       16.8060   60.8660   39.6630 C.ar  510  INH510      0.0130
     23  C11       17.9290   61.7090   39.4440 C.ar  510  INH510      0.0010
     24  C12       17.7510   63.1200   39.3790 C.ar  510  INH510      0.0010
     25  C19       16.4830   57.0230   38.8340 C.3   510  INH510     -0.0040
     26  C23       17.8230   57.4730   38.6640 C.2   510  INH510      0.0310
     27  C22       18.8710   56.7970   39.3300 C.2   510  INH510      0.0880
     28  N4        18.6010   55.7160   40.1330 N.pl3 510  INH510     -0.3750
     29  C21       17.3210   55.2540   40.3220 C.2   510  INH510      0.0880
     30  H4        19.3730   55.2420   40.6020 H     510  INH510      0.1640
     31  C20       16.2340   55.8970   39.6770 C.2   510  INH510      0.0310
     32  C2        11.9560   59.4490   35.3660 C.3   510  INH510      0.1390
     33  C3        11.9680   60.6560   36.3460 C.3   510  INH510     -0.0040
     34  C5        12.5410   61.9200   35.6740 C.3   510  INH510      0.0110
     35  C4        10.5320   60.9700   36.8090 C.3   510  INH510      0.0110
@<TRIPOS>BOND
     1     2     1    2
     2    13    12    1
     3     1    12   ar
     4     1     3   ar
     5    12    10   ar
     6    32     3    1
     7    32    33    1
     8     3     4   ar
     9    10    11    2
    10    10     9   ar
    11    34    33    1
    12    33    35    1
    13     4     9   ar
    14     4     5    1
    15     9     8    1
    16     5     6    1
    17     5     7    1
    18     8     7    1
    19     8    25    1
    20    26    25    1
    21    26    27    2
    22     7    14    1
    23    25    31    1
    24    27    28    1
    25    24    23   ar
    26    24    21   ar
    27    23    22   ar
    28    21    19   ar
    29    22    20   ar
    30    31    29    2
    31    19    20   ar
    32    19    18   ar
    33    20    15   ar
    34    18    17   ar
    35    15    14    1
    36    15    16   ar
    37    17    16   ar
    38    28    29    1
    39    28    30    1
