@<TRIPOS>MOLECULE
./ligand/2qeh_lig.pdb
 26 27 0 0 0
SMALL
GASTEIGER

@<TRIPOS>ATOM
      1  C1        17.8170  -10.1210   -4.3620 C.ar  148  INH148     -0.0343
      2  C2        16.9740  -11.1720   -4.0640 C.ar  148  INH148     -0.0182
      3  C3        18.5470  -12.7390   -4.8650 C.ar  148  INH148     -0.0108
      4  C4        21.0370  -10.5080   -5.8360 C.ar  148  INH148      0.0061
      5  C5        19.3500  -11.7660   -5.1560 C.ar  148  INH148      0.0065
      6  C6        20.6210  -11.8280   -5.7250 C.ar  148  INH148     -0.0172
      7  C7        19.0430  -10.4360   -4.9170 C.ar  148  INH148      0.0470
      8  C8        17.3840  -12.4770   -4.3380 C.ar  148  INH148      0.1176
      9  C9        21.4420  -13.0290   -6.1670 C.3   148  INH148      0.0145
     10  C10       22.9370  -12.6660   -6.1150 C.3   148  INH148     -0.0313
     11  N1        20.0770   -9.6880   -5.3470 N.ar  148  INH148     -0.3604
     12  N2        23.7690  -13.8280   -6.4090 N.4   148  INH148      0.2188
     13  O1        16.5170  -13.4770   -4.0240 O.3   148  INH148     -0.5067
     14  H1        17.5310   -9.0970   -4.1700 H     148  INH148      0.0639
     15  H2        16.0060  -10.9860   -3.6230 H     148  INH148      0.0655
     16  H3        18.8390  -13.7610   -5.0580 H     148  INH148      0.0661
     17  H4        21.9810  -10.1850   -6.2490 H     148  INH148      0.0810
     18  H5        21.1660  -13.3060   -7.1950 H     148  INH148      0.0366
     19  H6        21.2440  -13.8790   -5.4970 H     148  INH148      0.0366
     20  H7        23.1800  -12.2980   -5.1070 H     148  INH148      0.0816
     21  H8        23.1360  -11.8920   -6.8700 H     148  INH148      0.0816
     22  H9        20.1280   -8.6900   -5.3110 H     148  INH148      0.1653
     23  H10       23.9590  -13.8630   -7.3900 H     148  INH148      0.1994
     24  H11       24.6300  -13.7580   -5.9050 H     148  INH148      0.1994
     25  H12       23.2880  -14.6600   -6.1340 H     148  INH148      0.1994
     26  H13       16.3150  -13.9780   -4.8050 H     148  INH148      0.2921
@<TRIPOS>BOND
     1     1     7   ar
     2     1    14    1
     3     1     2   ar
     4     2    15    1
     5     2     8   ar
     6     3    16    1
     7     3     8   ar
     8     3     5   ar
     9     4     6   ar
    10     4    17    1
    11     4    11   ar
    12     5     7   ar
    13     5     6   ar
    14     6     9    1
    15     7    11   ar
    16     8    13    1
    17     9    19    1
    18     9    18    1
    19     9    10    1
    20    10    21    1
    21    10    20    1
    22    10    12    1
    23    11    22    1
    24    12    25    1
    25    12    24    1
    26    12    23    1
    27    13    26    1
