@<TRIPOS>MOLECULE
/tmp/ewbell/vina_2qeh_2qeh_lig/vina/vina2.pdbqt
 18 19 0 0 0
SMALL
GASTEIGER

@<TRIPOS>ATOM
      1  C1        26.9350   -9.4850   -9.7860 C.ar  148  INH148      0.0330
      2  C2        26.4440   -8.2710  -10.2230 C.ar  148  INH148      0.0390
      3  C3        24.7680   -9.3390  -11.4960 C.ar  148  INH148      0.0500
      4  C4        25.5870  -12.6390  -10.7480 C.ar  148  INH148      0.0960
      5  C5        25.2170  -10.4870  -11.1010 C.ar  148  INH148      0.0010
      6  C6        24.7490  -11.7610  -11.4220 C.ar  148  INH148     -0.0290
      7  C7        26.2910  -10.6220  -10.2370 C.ar  148  INH148      0.0430
      8  C8        25.3500   -8.2460  -11.0880 C.ar  148  INH148      0.0660
      9  N1        26.5060  -11.9370  -10.0440 N.ar  148  INH148     -0.3650
     10  H9        27.2260  -12.3320   -9.4730 H     148  INH148      0.1650
     11  C9        23.5910  -12.1870  -12.3110 C.3   148  INH148      0.0680
     12  C10       24.1350  -13.0280  -13.4800 C.3   148  INH148      0.2340
     13  N2        23.2260  -14.1230  -13.8050 N.4   148  INH148     -0.0790
     14  H12       23.7240  -14.9890  -13.7740 H     148  INH148      0.2740
     15  H11       22.8520  -13.9850  -14.7220 H     148  INH148      0.2740
     16  H10       22.4800  -14.1450  -13.1400 H     148  INH148      0.2740
     17  O1        24.9040   -7.0250  -11.4870 O.3   148  INH148     -0.3610
     18  H13       24.2720   -6.6980  -10.8590 H     148  INH148      0.2170
@<TRIPOS>BOND
     1    15    13    1
     2    13    14    1
     3    13    12    1
     4    13    16    1
     5    12    11    1
     6    11     6    1
     7     3     5   ar
     8     3     8   ar
     9    17     8    1
    10    17    18    1
    11     6     5   ar
    12     6     4   ar
    13     5     7   ar
    14     8     2   ar
    15     4     9   ar
    16     7     9   ar
    17     7     1   ar
    18     2     1   ar
    19     9    10    1
