@<TRIPOS>MOLECULE
/tmp/ewbell/vina_2qeh_2qeh_lig/vina/vina4.pdbqt
 18 19 0 0 0
SMALL
GASTEIGER

@<TRIPOS>ATOM
      1  C1        26.3570  -15.4430  -17.1330 C.ar  148  INH148      0.0330
      2  C2        25.5880  -16.5490  -16.8330 C.ar  148  INH148      0.0390
      3  C3        24.9340  -15.6090  -14.7690 C.ar  148  INH148      0.0500
      4  C4        26.7110  -12.6230  -14.9840 C.ar  148  INH148      0.0960
      5  C5        25.6540  -14.5650  -15.0300 C.ar  148  INH148      0.0010
      6  C6        25.8420  -13.4230  -14.2530 C.ar  148  INH148     -0.0290
      7  C7        26.3790  -14.4210  -16.2020 C.ar  148  INH148      0.0430
      8  C8        24.8890  -16.5900  -15.6270 C.ar  148  INH148      0.0660
      9  N1        27.0220  -13.2390  -16.1490 N.ar  148  INH148     -0.3650
     10  H9        27.6300  -12.8750  -16.8550 H     148  INH148      0.1650
     11  C9        25.2720  -13.0550  -12.8930 C.3   148  INH148      0.0680
     12  C10       23.9610  -12.2720  -13.0890 C.3   148  INH148      0.2340
     13  N2        22.9640  -12.6630  -12.0970 N.4   148  INH148     -0.0790
     14  H12       22.0520  -12.4250  -12.4300 H     148  INH148      0.2740
     15  H11       23.1420  -12.1840  -11.2380 H     148  INH148      0.2740
     16  H10       23.0140  -13.6500  -11.9450 H     148  INH148      0.2740
     17  O1        24.1450  -17.7010  -15.3800 O.3   148  INH148     -0.3610
     18  H13       24.0750  -18.2180  -16.1740 H     148  INH148      0.2170
@<TRIPOS>BOND
     1     1     2   ar
     2     1     7   ar
     3    10     9    1
     4     2     8   ar
     5     7     9   ar
     6     7     5   ar
     7    18    17    1
     8     9     4   ar
     9     8    17    1
    10     8     3   ar
    11     5     3   ar
    12     5     6   ar
    13     4     6   ar
    14     6    11    1
    15    12    11    1
    16    12    13    1
    17    14    13    1
    18    13    16    1
    19    13    15    1
