@<TRIPOS>MOLECULE
/tmp/ewbell/vina_2qeh_2qeh_lig/vina/vina1.pdbqt
 18 19 0 0 0
SMALL
GASTEIGER

@<TRIPOS>ATOM
      1  C1        28.7220   -7.2430  -10.0670 C.ar  148  INH148      0.0330
      2  C2        29.3190   -7.9130   -9.0190 C.ar  148  INH148      0.0390
      3  C3        27.6230   -9.5550   -9.0250 C.ar  148  INH148      0.0500
      4  C4        25.6910   -8.2790  -11.6260 C.ar  148  INH148      0.0960
      5  C5        27.0460   -8.9370  -10.0060 C.ar  148  INH148      0.0010
      6  C6        25.8700   -9.2740  -10.6740 C.ar  148  INH148     -0.0290
      7  C7        27.5550   -7.7810  -10.5750 C.ar  148  INH148      0.0430
      8  C8        28.7260   -9.0750   -8.5240 C.ar  148  INH148      0.0660
      9  N1        26.7120   -7.3930  -11.5500 N.ar  148  INH148     -0.3650
     10  H9        26.8210   -6.5820  -12.1250 H     148  INH148      0.1650
     11  C9        24.9230  -10.4460  -10.4670 C.3   148  INH148      0.0680
     12  C10       24.4420  -10.9560  -11.8370 C.3   148  INH148      0.2340
     13  N2        23.7340  -12.2260  -11.7050 N.4   148  INH148     -0.0790
     14  H12       23.3010  -12.4570  -12.5750 H     148  INH148      0.2740
     15  H11       23.0360  -12.1450  -10.9940 H     148  INH148      0.2740
     16  H10       24.3830  -12.9440  -11.4560 H     148  INH148      0.2740
     17  O1        29.3550   -9.6990   -7.4920 O.3   148  INH148     -0.3610
     18  H13       29.8790   -9.0690   -7.0120 H     148  INH148      0.2170
@<TRIPOS>BOND
     1    14    13    1
     2    10     9    1
     3    12    13    1
     4    12    11    1
     5    13    16    1
     6    13    15    1
     7     4     9   ar
     8     4     6   ar
     9     9     7   ar
    10     6    11    1
    11     6     5   ar
    12     7     1   ar
    13     7     5   ar
    14     1     2   ar
    15     5     3   ar
    16     3     8   ar
    17     2     8   ar
    18     8    17    1
    19    17    18    1
