@<TRIPOS>MOLECULE
/tmp/ewbell/vina_2qeh_2qeh_lig/vina/vina3.pdbqt
 18 19 0 0 0
SMALL
GASTEIGER

@<TRIPOS>ATOM
      1  C1        29.0960  -13.2210  -11.0830 C.ar  148  INH148      0.0330
      2  C2        28.3410  -14.2420  -11.6230 C.ar  148  INH148      0.0390
      3  C3        26.3630  -12.9690  -11.4140 C.ar  148  INH148      0.0500
      4  C4        27.7470  -10.1110   -9.9880 C.ar  148  INH148      0.0960
      5  C5        27.0550  -12.0020  -10.9010 C.ar  148  INH148      0.0010
      6  C6        26.6110  -10.7580  -10.4550 C.ar  148  INH148     -0.0290
      7  C7        28.4270  -12.0670  -10.7210 C.ar  148  INH148      0.0430
      8  C8        26.9640  -14.0710  -11.7680 C.ar  148  INH148      0.0660
      9  N1        28.8260  -10.9120  -10.1550 N.ar  148  INH148     -0.3650
     10  H9        29.7660  -10.6820   -9.9010 H     148  INH148      0.1650
     11  C9        25.2120  -10.1630  -10.4350 C.3   148  INH148      0.0680
     12  C10       24.9410   -9.4650  -11.7800 C.3   148  INH148      0.2340
     13  N2        24.7570   -8.0280  -11.5970 N.4   148  INH148     -0.0790
     14  H12       23.9100   -7.8630  -11.0910 H     148  INH148      0.2740
     15  H11       24.7050   -7.5820  -12.4900 H     148  INH148      0.2740
     16  H10       25.5280   -7.6560  -11.0820 H     148  INH148      0.2740
     17  O1        26.2650  -15.1060  -12.3070 O.3   148  INH148     -0.3610
     18  H13       26.5900  -15.2870  -13.1810 H     148  INH148      0.2170
@<TRIPOS>BOND
     1    18    17    1
     2    15    13    1
     3    17     8    1
     4    12    13    1
     5    12    11    1
     6     8     2   ar
     7     8     3   ar
     8     2     1   ar
     9    13    14    1
    10    13    16    1
    11     3     5   ar
    12     1     7   ar
    13     5     7   ar
    14     5     6   ar
    15     7     9   ar
    16     6    11    1
    17     6     4   ar
    18     9     4   ar
    19     9    10    1
