@<TRIPOS>MOLECULE
/tmp/ewbell/vina_2qeh_2qeh_lig/vina/vina5.pdbqt
 18 19 0 0 0
SMALL
GASTEIGER

@<TRIPOS>ATOM
      1  C1        27.1250  -14.1150  -12.2230 C.ar  148  INH148      0.0330
      2  C2        28.2280  -13.7740  -11.4680 C.ar  148  INH148      0.0390
      3  C3        27.1780  -11.7990  -10.7160 C.ar  148  INH148      0.0500
      4  C4        24.1680  -12.1390  -12.4320 C.ar  148  INH148      0.0960
      5  C5        26.1340  -12.0990  -11.4210 C.ar  148  INH148      0.0010
      6  C6        24.9410  -11.3910  -11.5540 C.ar  148  INH148     -0.0290
      7  C7        26.0470  -13.2510  -12.1870 C.ar  148  INH148      0.0430
      8  C8        28.2110  -12.5930  -10.7250 C.ar  148  INH148      0.0660
      9  N1        24.8480  -13.2500  -12.8010 N.ar  148  INH148     -0.3650
     10  H9        24.5140  -13.9550  -13.4270 H     148  INH148      0.1650
     11  C9        24.5020  -10.0790  -10.9250 C.3   148  INH148      0.0680
     12  C10       24.8770   -8.9180  -11.8640 C.3   148  INH148      0.2340
     13  N2        24.9020   -7.6480  -11.1430 N.4   148  INH148     -0.0790
     14  H12       24.8240   -6.8940  -11.7940 H     148  INH148      0.2740
     15  H11       25.7630   -7.5680  -10.6400 H     148  INH148      0.2740
     16  H10       24.1370   -7.6140  -10.5020 H     148  INH148      0.2740
     17  O1        29.3230  -12.3030   -9.9970 O.3   148  INH148     -0.3610
     18  H13       29.5840  -13.0690   -9.5000 H     148  INH148      0.2170
@<TRIPOS>BOND
     1    10     9    1
     2     9     4   ar
     3     9     7   ar
     4     4     6   ar
     5     1     7   ar
     6     1     2   ar
     7     7     5   ar
     8    12    13    1
     9    12    11    1
    10    14    13    1
    11     6     5   ar
    12     6    11    1
    13     2     8   ar
    14     5     3   ar
    15    13    15    1
    16    13    16    1
    17     8     3   ar
    18     8    17    1
    19    17    18    1
