@<TRIPOS>MOLECULE
./ligand/2vw5_lig.pdb
 78 79 0 0 0
SMALL
GASTEIGER

@<TRIPOS>ATOM
      1  O1        40.9960   -5.2790   41.7570 O.2   217  INH217     -0.2702
      2  C1        41.0020   -5.7550   40.6250 C.2   217  INH217      0.2437
      3  C2        41.4180   -7.1450   40.5150 C.2   217  INH217      0.0076
      4  C3        42.7470   -7.5080   41.1090 C.3   217  INH217     -0.0351
      5  C4        40.5640   -8.0530   39.9520 C.2   217  INH217     -0.0762
      6  C5        40.7860   -9.5190   39.7600 C.3   217  INH217     -0.0337
      7  C6        40.0280   -9.9160   38.4900 C.3   217  INH217     -0.0433
      8  C7        38.5180  -10.0610   38.6600 C.3   217  INH217     -0.0024
      9  C8        38.1500  -11.0510   39.7780 C.3   217  INH217     -0.0587
     10  N1        40.6430   -4.9780   39.5910 N.am  217  INH217     -0.2817
     11  C9        40.8770   -5.2320   38.2610 C.ar  217  INH217      0.0374
     12  C10       39.8760   -4.9220   37.3560 C.ar  217  INH217      0.0011
     13  C11       40.0430   -5.1480   35.9880 C.ar  217  INH217      0.1189
     14  O2        38.9920   -4.8630   35.1630 O.3   217  INH217     -0.5067
     15  C12       41.2240   -5.7010   35.4980 C.ar  217  INH217     -0.0169
     16  C13       42.2460   -6.0330   36.4130 C.ar  217  INH217     -0.0419
     17  C14       42.0690   -5.7740   37.7770 C.ar  217  INH217     -0.0371
     18  C15       43.5440   -6.6740   35.9660 C.3   217  INH217     -0.0248
     19  C16       43.4590   -8.2170   35.8600 C.3   217  INH217     -0.0375
     20  C17       43.2910   -8.9200   37.2190 C.3   217  INH217     -0.0620
     21  C18       42.3660   -8.6630   34.8460 C.3   217  INH217     -0.0213
     22  C19       42.1310  -10.1630   34.7050 C.3   217  INH217      0.0849
     23  O3        43.3610  -10.8360   34.3610 O.3   217  INH217     -0.3772
     24  C20       43.3820  -12.2070   34.6920 C.3   217  INH217      0.0369
     25  C21       41.0990  -10.4920   33.6260 C.3   217  INH217      0.0872
     26  O4        41.6470   -9.9950   32.3850 O.3   217  INH217     -0.3887
     27  C22       39.7420   -9.8420   33.9210 C.3   217  INH217      0.0031
     28  C23       38.7820  -10.2650   32.8140 C.3   217  INH217     -0.0565
     29  C24       39.1360  -10.3870   35.2100 C.2   217  INH217     -0.0762
     30  C25       38.3980   -9.7100   36.1370 C.2   217  INH217     -0.0359
     31  C26       38.0460   -8.2490   36.0160 C.3   217  INH217     -0.0403
     32  C27       37.8750  -10.4970   37.3180 C.3   217  INH217      0.1280
     33  O5        36.4860  -10.2250   37.4330 O.3   217  INH217     -0.4425
     34  C28       35.5900  -11.0430   36.6650 C.2   217  INH217      0.3982
     35  O6        36.0620  -11.8940   35.9290 O.2   217  INH217     -0.2267
     36  N2        34.3080  -10.7740   36.8570 N.am  217  INH217     -0.2950
     37  H1        42.9360   -8.5810   40.9570 H     217  INH217      0.0279
     38  H2        42.7400   -7.2860   42.1860 H     217  INH217      0.0279
     39  H3        43.5400   -6.9230   40.6190 H     217  INH217      0.0279
     40  H4        39.6100   -7.6620   39.6020 H     217  INH217      0.0576
     41  H5        41.8600   -9.7270   39.6420 H     217  INH217      0.0308
     42  H6        40.3970  -10.0780   40.6240 H     217  INH217      0.0308
     43  H7        40.2130   -9.1460   37.7270 H     217  INH217      0.0272
     44  H8        40.4270  -10.8800   38.1420 H     217  INH217      0.0272
     45  H9        38.1120   -9.0760   38.9340 H     217  INH217      0.0337
     46  H10       37.0550  -11.1200   39.8610 H     217  INH217      0.0234
     47  H11       38.5680  -10.6980   40.7320 H     217  INH217      0.0234
     48  H12       38.5630  -12.0420   39.5410 H     217  INH217      0.0234
     49  H13       40.1580   -4.1310   39.8100 H     217  INH217      0.1551
     50  H14       38.9460   -4.4960   37.7160 H     217  INH217      0.0673
     51  H15       39.2320   -5.0590   34.2650 H     217  INH217      0.2921
     52  H16       41.3550   -5.8730   34.4360 H     217  INH217      0.0657
     53  H17       42.8720   -5.9980   38.4700 H     217  INH217      0.0639
     54  H18       44.3290   -6.4160   36.6920 H     217  INH217      0.0316
     55  H19       43.8110   -6.2700   34.9780 H     217  INH217      0.0316
     56  H20       44.4240   -8.5530   35.4540 H     217  INH217      0.0302
     57  H21       43.2380  -10.0080   37.0650 H     217  INH217      0.0233
     58  H22       42.3650   -8.5730   37.7000 H     217  INH217      0.0233
     59  H23       44.1500   -8.6820   37.8640 H     217  INH217      0.0233
     60  H24       42.6520   -8.2760   33.8570 H     217  INH217      0.0294
     61  H25       41.4160   -8.2050   35.1580 H     217  INH217      0.0294
     62  H26       41.7680  -10.5470   35.6700 H     217  INH217      0.0622
     63  H27       44.3490  -12.6400   34.3980 H     217  INH217      0.0524
     64  H28       42.5710  -12.7250   34.1600 H     217  INH217      0.0524
     65  H29       43.2420  -12.3250   35.7770 H     217  INH217      0.0524
     66  H30       40.9630  -11.5820   33.5640 H     217  INH217      0.0625
     67  H31       41.0400  -10.1750   31.6760 H     217  INH217      0.2099
     68  H32       39.8450   -8.7480   33.9710 H     217  INH217      0.0366
     69  H33       37.7940   -9.8150   32.9940 H     217  INH217      0.0236
     70  H34       38.6900  -11.3610   32.8070 H     217  INH217      0.0236
     71  H35       39.1690   -9.9240   31.8430 H     217  INH217      0.0236
     72  H36       39.3130  -11.4420   35.4150 H     217  INH217      0.0576
     73  H37       37.4480   -7.9430   36.8870 H     217  INH217      0.0276
     74  H38       37.4640   -8.0870   35.0970 H     217  INH217      0.0276
     75  H39       38.9690   -7.6520   35.9760 H     217  INH217      0.0276
     76  H40       38.0510  -11.5700   37.1520 H     217  INH217      0.0785
     77  H41       33.6090  -11.2930   36.3650 H     217  INH217      0.1482
     78  H42       34.0390  -10.0520   37.4940 H     217  INH217      0.1482
@<TRIPOS>BOND
     1     1     2    2
     2     2    10   am
     3     2     3    1
     4     3     5    2
     5     3     4    1
     6     4    39    1
     7     4    38    1
     8     4    37    1
     9     5    40    1
    10     5     6    1
    11     6    42    1
    12     6    41    1
    13     6     7    1
    14     7    44    1
    15     7    43    1
    16     7     8    1
    17     8    45    1
    18     8    32    1
    19     8     9    1
    20     9    48    1
    21     9    47    1
    22     9    46    1
    23    10    11    1
    24    10    49    1
    25    11    12   ar
    26    11    17   ar
    27    12    13   ar
    28    12    50    1
    29    13    15   ar
    30    13    14    1
    31    14    51    1
    32    15    16   ar
    33    15    52    1
    34    16    18    1
    35    16    17   ar
    36    17    53    1
    37    18    19    1
    38    18    55    1
    39    18    54    1
    40    19    21    1
    41    19    56    1
    42    19    20    1
    43    20    59    1
    44    20    58    1
    45    20    57    1
    46    21    22    1
    47    21    61    1
    48    21    60    1
    49    22    25    1
    50    22    62    1
    51    22    23    1
    52    23    24    1
    53    24    65    1
    54    24    64    1
    55    24    63    1
    56    25    27    1
    57    25    66    1
    58    25    26    1
    59    26    67    1
    60    27    29    1
    61    27    68    1
    62    27    28    1
    63    28    71    1
    64    28    70    1
    65    28    69    1
    66    29    30    2
    67    29    72    1
    68    30    32    1
    69    30    31    1
    70    31    75    1
    71    31    74    1
    72    31    73    1
    73    32    76    1
    74    32    33    1
    75    33    34    1
    76    34    36   am
    77    34    35    2
    78    36    78    1
    79    36    77    1
