@<TRIPOS>MOLECULE
/tmp/ewbell/vina_2vw5_2vw5_lig/vina/vina2.pdbqt
 41 42 0 0 0
SMALL
GASTEIGER

@<TRIPOS>ATOM
      1  O1        33.9820    3.1230   39.5430 O.2   217  INH217     -0.2680
      2  C1        33.4590    2.9970   38.4400 C.2   217  INH217      0.2510
      3  C2        34.1520    3.6260   37.3250 C.2   217  INH217      0.0020
      4  C3        34.4660    5.0880   37.4550 C.3   217  INH217      0.0540
      5  C4        34.5420    2.8570   36.2640 C.2   217  INH217     -0.0140
      6  C5        35.2740    3.2970   35.0370 C.3   217  INH217      0.0280
      7  C6        34.8010    2.3930   33.8950 C.3   217  INH217      0.0110
      8  C7        35.4130    0.9940   33.8850 C.3   217  INH217      0.0160
      9  C8        36.9500    1.0310   33.8740 C.3   217  INH217      0.0130
     10  N1        32.3080    2.3130   38.3390 N.am  217  INH217     -0.3230
     11  C9        31.4410    2.3300   37.2740 C.ar  217  INH217      0.0380
     12  C10       30.8490    1.1350   36.9020 C.ar  217  INH217      0.0660
     13  C11       29.9530    1.0740   35.8320 C.ar  217  INH217      0.0680
     14  C12       29.6380    2.2190   35.1030 C.ar  217  INH217      0.0430
     15  C13       30.2460    3.4400   35.4650 C.ar  217  INH217     -0.0530
     16  C14       31.1200    3.4840   36.5570 C.ar  217  INH217      0.0370
     17  C15       29.9870    4.7210   34.7000 C.3   217  INH217      0.0430
     18  C16       30.9110    4.8950   33.4690 C.3   217  INH217     -0.0120
     19  C17       32.3900    5.1190   33.8340 C.3   217  INH217      0.0100
     20  C18       30.7430    3.7260   32.4560 C.3   217  INH217      0.0390
     21  C19       31.6540    3.7400   31.2330 C.3   217  INH217      0.1500
     22  C21       31.3490    2.5960   30.2650 C.3   217  INH217      0.1540
     23  C22       31.5070    1.2270   30.9370 C.3   217  INH217      0.0350
     24  C23       31.2220    0.1640   29.8810 C.3   217  INH217      0.0170
     25  C24       32.9490    0.9870   31.3710 C.2   217  INH217     -0.0150
     26  C25       33.3870    0.3320   32.4850 C.2   217  INH217     -0.0580
     27  C26       32.4640   -0.2930   33.5010 C.3   217  INH217      0.0460
     28  C27       34.8820    0.1940   32.6670 C.3   217  INH217      0.1660
     29  H13       32.0580    1.7360   39.1170 H     217  INH217      0.1690
     30  O5        35.1570   -1.1730   32.9360 O.3   217  INH217     -0.2940
     31  C28       35.2190   -2.0640   31.8120 C.2   217  INH217      0.3580
     32  N2        36.4230   -2.1810   31.2750 N.am  217  INH217     -0.3460
     33  H42       37.1930   -1.6700   31.6590 H     217  INH217      0.1610
     34  H41       36.5640   -2.7810   30.4880 H     217  INH217      0.1610
     35  O6        34.1930   -2.6180   31.4490 O.2   217  INH217     -0.2390
     36  O4        29.9870    2.7980   29.8260 O.3   217  INH217     -0.3920
     37  H31       29.7240    2.0750   29.2680 H     217  INH217      0.2100
     38  O3        31.5080    4.9820   30.5100 O.3   217  INH217     -0.3880
     39  C20       32.7170    5.4990   29.9990 C.3   217  INH217      0.2020
     40  O2        29.4480   -0.1500   35.4940 O.3   217  INH217     -0.3610
     41  H15       29.7980   -0.8100   36.0800 H     217  INH217      0.2170
@<TRIPOS>BOND
     1    37    36    1
     2    36    22    1
     3    24    23    1
     4    39    38    1
     5    22    23    1
     6    22    21    1
     7    34    32    1
     8    38    21    1
     9    23    25    1
    10    21    20    1
    11    32    33    1
    12    32    31   am
    13    25    26    2
    14    35    31    2
    15    31    30    1
    16    20    18    1
    17    26    28    1
    18    26    27    1
    19    28    30    1
    20    28     8    1
    21    18    19    1
    22    18    17    1
    23     9     8    1
    24     8     7    1
    25     7     6    1
    26    17    15    1
    27     6     5    1
    28    14    15   ar
    29    14    13   ar
    30    15    16   ar
    31    40    13    1
    32    40    41    1
    33    13    12   ar
    34     5     3    2
    35    16    11   ar
    36    12    11   ar
    37    11    10    1
    38     3     4    1
    39     3     2    1
    40    10     2   am
    41    10    29    1
    42     2     1    2
