@<TRIPOS>MOLECULE
/tmp/ewbell/vina_2vw5_2vw5_lig/vina/vina3.pdbqt
 41 42 0 0 0
SMALL
GASTEIGER

@<TRIPOS>ATOM
      1  O1        38.3940   -0.8020   37.4800 O.2   217  INH217     -0.2680
      2  C1        37.5480    0.0580   37.2510 C.2   217  INH217      0.2510
      3  C2        37.6770    0.7660   35.9860 C.2   217  INH217      0.0020
      4  C3        38.9980    1.4190   35.7030 C.3   217  INH217      0.0540
      5  C4        36.6350    0.7420   35.1000 C.2   217  INH217     -0.0140
      6  C5        36.5690    1.3830   33.7510 C.3   217  INH217      0.0280
      7  C6        35.1040    1.7650   33.5180 C.3   217  INH217      0.0110
      8  C7        34.1900    0.6070   33.1270 C.3   217  INH217      0.0160
      9  C8        34.7020   -0.1470   31.8880 C.3   217  INH217      0.0130
     10  N1        36.5900    0.2870   38.1630 N.am  217  INH217     -0.3230
     11  C9        35.7660    1.3850   38.2220 C.ar  217  INH217      0.0380
     12  C10       34.4400    1.1830   38.5640 C.ar  217  INH217      0.0660
     13  C11       33.5440    2.2510   38.6480 C.ar  217  INH217      0.0680
     14  C12       33.9630    3.5520   38.3810 C.ar  217  INH217      0.0430
     15  C13       35.3100    3.7680   38.0180 C.ar  217  INH217     -0.0530
     16  C14       36.1980    2.6880   37.9660 C.ar  217  INH217      0.0370
     17  C15       35.8350    5.1470   37.6740 C.3   217  INH217      0.0430
     18  C16       35.6180    5.5300   36.1890 C.3   217  INH217     -0.0120
     19  C17       36.4570    4.6930   35.2060 C.3   217  INH217      0.0100
     20  C18       34.1090    5.5170   35.8080 C.3   217  INH217      0.0390
     21  C19       33.7660    5.8060   34.3500 C.3   217  INH217      0.1500
     22  C21       32.2580    5.8500   34.1050 C.3   217  INH217      0.1540
     23  C22       31.5820    4.5260   34.4810 C.3   217  INH217      0.0350
     24  C23       30.0970    4.6640   34.1600 C.3   217  INH217      0.0170
     25  C24       32.0790    3.3820   33.6040 C.2   217  INH217     -0.0150
     26  C25       32.2880    2.0830   33.9650 C.2   217  INH217     -0.0580
     27  C26       32.0370    1.5540   35.3550 C.3   217  INH217      0.0460
     28  C27       32.7500    1.1280   32.8870 C.3   217  INH217      0.1660
     29  H13       36.4640   -0.4100   38.8700 H     217  INH217      0.1690
     30  O5        31.9010   -0.0090   32.9290 O.3   217  INH217     -0.2940
     31  C28       30.9520   -0.1610   31.8630 C.2   217  INH217      0.3580
     32  N2        31.0700    0.7360   30.8970 N.am  217  INH217     -0.3460
     33  H42       31.7790    1.4400   30.9530 H     217  INH217      0.1610
     34  H41       30.4530    0.7100   30.1110 H     217  INH217      0.1610
     35  O6        30.1360   -1.0670   31.9320 O.2   217  INH217     -0.2390
     36  O4        31.7530    6.9330   34.9180 O.3   217  INH217     -0.3920
     37  H31       32.0700    6.8350   35.8080 H     217  INH217      0.2100
     38  O3        34.3180    7.0760   33.9440 O.3   217  INH217     -0.3880
     39  C20       34.9090    7.0660   32.6630 C.3   217  INH217      0.2020
     40  O2        32.2410    1.9670   38.9430 O.3   217  INH217     -0.3610
     41  H15       32.1550    1.8070   39.8750 H     217  INH217      0.2170
@<TRIPOS>BOND
     1    34    32    1
     2    32    33    1
     3    32    31   am
     4    31    35    2
     5    31    30    1
     6     9     8    1
     7    39    38    1
     8    28    30    1
     9    28     8    1
    10    28    26    1
    11     8     7    1
    12     7     6    1
    13    25    26    2
    14    25    23    1
    15     6     5    1
    16    38    21    1
    17    26    27    1
    18    22    21    1
    19    22    23    1
    20    22    36    1
    21    24    23    1
    22    21    20    1
    23    36    37    1
    24     5     3    2
    25    19    18    1
    26     4     3    1
    27    20    18    1
    28     3     2    1
    29    18    17    1
    30     2     1    2
    31     2    10   am
    32    17    15    1
    33    16    15   ar
    34    16    11   ar
    35    15    14   ar
    36    10    11    1
    37    10    29    1
    38    11    12   ar
    39    14    13   ar
    40    12    13   ar
    41    13    40    1
    42    40    41    1
