@<TRIPOS>MOLECULE
/tmp/ewbell/vina_2vw5_2vw5_lig/vina/vina1.pdbqt
 41 42 0 0 0
SMALL
GASTEIGER

@<TRIPOS>ATOM
      1  O1        41.1740   -5.4320   41.8680 O.2   217  INH217     -0.2680
      2  C1        41.1520   -5.8900   40.7290 C.2   217  INH217      0.2510
      3  C2        41.5740   -7.2760   40.5860 C.2   217  INH217      0.0020
      4  C3        42.9210   -7.6390   41.1380 C.3   217  INH217      0.0540
      5  C4        40.7110   -8.1800   40.0320 C.2   217  INH217     -0.0140
      6  C5        40.9370   -9.6420   39.8110 C.3   217  INH217      0.0280
      7  C6        40.1470  -10.0240   38.5560 C.3   217  INH217      0.0110
      8  C7        38.6430  -10.1820   38.7650 C.3   217  INH217      0.0160
      9  C8        38.3120  -11.1920   39.8760 C.3   217  INH217      0.0130
     10  N1        40.7610   -5.1000   39.7180 N.am  217  INH217     -0.3230
     11  C9        40.9600   -5.3310   38.3780 C.ar  217  INH217      0.0380
     12  C10       39.9330   -5.0140   37.5060 C.ar  217  INH217      0.0660
     13  C11       40.0640   -5.2180   36.1300 C.ar  217  INH217      0.0680
     14  C12       41.2350   -5.7550   35.6000 C.ar  217  INH217      0.0430
     15  C13       42.2830   -6.0940   36.4810 C.ar  217  INH217     -0.0530
     16  C14       42.1420   -5.8580   37.8530 C.ar  217  INH217      0.0370
     17  C15       43.5730   -6.7190   35.9890 C.3   217  INH217      0.0430
     18  C16       43.4950   -8.2610   35.8610 C.3   217  INH217     -0.0120
     19  C17       43.3680   -8.9860   37.2130 C.3   217  INH217      0.0100
     20  C18       42.3770   -8.6990   34.8700 C.3   217  INH217      0.0390
     21  C19       42.1480  -10.1980   34.7120 C.3   217  INH217      0.1500
     22  C21       41.0890  -10.5170   33.6560 C.3   217  INH217      0.1540
     23  C22       39.7370   -9.8810   33.9980 C.3   217  INH217      0.0350
     24  C23       38.7490  -10.2930   32.9110 C.3   217  INH217      0.0170
     25  C24       39.1690  -10.4500   35.2940 C.2   217  INH217     -0.0150
     26  C25       38.4520   -9.7920   36.2520 C.2   217  INH217     -0.0580
     27  C26       38.0880   -8.3320   36.1630 C.3   217  INH217      0.0460
     28  C27       37.9670  -10.6010   37.4340 C.3   217  INH217      0.1660
     29  H13       40.2760   -4.2590   39.9630 H     217  INH217      0.1690
     30  O5        36.5800  -10.3400   37.5910 O.3   217  INH217     -0.2940
     31  C28       35.6760  -11.0470   36.7280 C.2   217  INH217      0.3580
     32  N2        34.6130  -10.3480   36.3630 N.am  217  INH217     -0.3460
     33  H42       34.4960   -9.4100   36.6900 H     217  INH217      0.1610
     34  H41       33.9260  -10.7570   35.7620 H     217  INH217      0.1610
     35  O6        35.9460  -12.1950   36.4140 O.2   217  INH217     -0.2390
     36  O4        41.6000   -9.9970   32.4090 O.3   217  INH217     -0.3920
     37  H31       42.0290   -9.1630   32.5650 H     217  INH217      0.2100
     38  O3        43.3720  -10.8570   34.3240 O.3   217  INH217     -0.3880
     39  C20       43.3520  -12.2580   34.4890 C.3   217  INH217      0.2020
     40  O2        38.9890   -4.9270   35.3390 O.3   217  INH217     -0.3610
     41  H15       39.2440   -4.9850   34.4250 H     217  INH217      0.2170
@<TRIPOS>BOND
     1    36    37    1
     2    36    22    1
     3    24    23    1
     4    22    23    1
     5    22    21    1
     6    23    25    1
     7    38    39    1
     8    38    21    1
     9    41    40    1
    10    21    20    1
    11    20    18    1
    12    25    26    2
    13    40    13    1
    14    14    13   ar
    15    14    15   ar
    16    34    32    1
    17    18    17    1
    18    18    19    1
    19    17    15    1
    20    13    12   ar
    21    27    26    1
    22    26    28    1
    23    32    33    1
    24    32    31   am
    25    35    31    2
    26    15    16   ar
    27    31    30    1
    28    28    30    1
    29    28     8    1
    30    12    11   ar
    31    16    11   ar
    32    11    10    1
    33     7     8    1
    34     7     6    1
    35     8     9    1
    36    10    29    1
    37    10     2   am
    38     6     5    1
    39     5     3    2
    40     3     2    1
    41     3     4    1
    42     2     1    2
