@<TRIPOS>MOLECULE
/tmp/ewbell/vina_2vw5_2vw5_lig/vina/vina4.pdbqt
 41 42 0 0 0
SMALL
GASTEIGER

@<TRIPOS>ATOM
      1  O1        38.8780    0.2040   35.7610 O.2   217  INH217     -0.2680
      2  C1        37.9810    1.0240   35.9360 C.2   217  INH217      0.2510
      3  C2        37.3460    1.5480   34.7360 C.2   217  INH217      0.0020
      4  C3        38.2460    2.1530   33.6980 C.3   217  INH217      0.0540
      5  C4        35.9960    1.4020   34.5790 C.2   217  INH217     -0.0140
      6  C5        35.1570    1.8480   33.4250 C.3   217  INH217      0.0280
      7  C6        33.7780    2.1970   33.9920 C.3   217  INH217      0.0110
      8  C7        32.8890    0.9970   34.3090 C.3   217  INH217      0.0160
      9  C8        32.6980    0.0760   33.0920 C.3   217  INH217      0.0130
     10  N1        37.6610    1.3810   37.1900 N.am  217  INH217     -0.3230
     11  C9        36.9220    2.4780   37.5620 C.ar  217  INH217      0.0380
     12  C10       36.0160    2.3280   38.5990 C.ar  217  INH217      0.0660
     13  C11       35.2330    3.3990   39.0350 C.ar  217  INH217      0.0680
     14  C12       35.3390    4.6500   38.4300 C.ar  217  INH217      0.0430
     15  C13       36.2500    4.8100   37.3640 C.ar  217  INH217     -0.0530
     16  C14       37.0440    3.7310   36.9600 C.ar  217  INH217      0.0370
     17  C15       36.3970    6.1260   36.6270 C.3   217  INH217      0.0430
     18  C16       35.3770    6.2980   35.4740 C.3   217  INH217     -0.0120
     19  C17       35.6060    5.3300   34.2990 C.3   217  INH217      0.0100
     20  C18       33.9110    6.2350   35.9910 C.3   217  INH217      0.0390
     21  C19       32.8090    6.3170   34.9400 C.3   217  INH217      0.1500
     22  C21       31.4120    6.3290   35.5620 C.3   217  INH217      0.1540
     23  C22       31.1520    5.0730   36.4010 C.3   217  INH217      0.0350
     24  C23       29.7270    5.1670   36.9360 C.3   217  INH217      0.0170
     25  C24       31.1760    3.8160   35.5370 C.2   217  INH217     -0.0150
     26  C25       31.6450    2.5800   35.8740 C.2   217  INH217     -0.0580
     27  C26       32.2330    2.2510   37.2230 C.3   217  INH217      0.0460
     28  C27       31.5160    1.4820   34.8410 C.3   217  INH217      0.1660
     29  H13       37.9930    0.7900   37.9260 H     217  INH217      0.1690
     30  O5        30.9160    0.3640   35.4770 O.3   217  INH217     -0.2940
     31  C28       29.6060    0.5490   36.0340 C.2   217  INH217      0.3580
     32  N2        29.4280   -0.0270   37.2130 N.am  217  INH217     -0.3460
     33  H42       30.1770   -0.5380   37.6370 H     217  INH217      0.1610
     34  H41       28.5470    0.0470   37.6790 H     217  INH217      0.1610
     35  O6        28.7860    1.1930   35.3990 O.2   217  INH217     -0.2390
     36  O4        31.3510    7.5160   36.3830 O.3   217  INH217     -0.3920
     37  H31       32.2050    7.9350   36.3990 H     217  INH217      0.2100
     38  O3        32.9530    7.5170   34.1510 O.3   217  INH217     -0.3880
     39  C20       32.6990    7.3370   32.7750 C.3   217  INH217      0.2020
     40  O2        34.3270    3.1620   40.0290 O.3   217  INH217     -0.3610
     41  H15       34.7830    2.8830   40.8140 H     217  INH217      0.2170
@<TRIPOS>BOND
     1    39    38    1
     2     9     8    1
     3     6     7    1
     4     6     5    1
     5     4     3    1
     6     7     8    1
     7    38    21    1
     8    19    18    1
     9     8    28    1
    10     5     3    2
    11     3     2    1
    12    28    30    1
    13    28    26    1
    14    21    22    1
    15    21    20    1
    16    35    31    2
    17    18    20    1
    18    18    17    1
    19    30    31    1
    20    25    26    2
    21    25    23    1
    22    22    36    1
    23    22    23    1
    24     1     2    2
    25    26    27    1
    26     2    10   am
    27    31    32   am
    28    36    37    1
    29    23    24    1
    30    17    15    1
    31    16    15   ar
    32    16    11   ar
    33    10    11    1
    34    10    29    1
    35    32    33    1
    36    32    34    1
    37    15    14   ar
    38    11    12   ar
    39    14    13   ar
    40    12    13   ar
    41    13    40    1
    42    40    41    1
