@<TRIPOS>MOLECULE
/tmp/ewbell/vina_2vw5_2vw5_lig/vina/vina5.pdbqt
 41 42 0 0 0
SMALL
GASTEIGER

@<TRIPOS>ATOM
      1  O1        30.2280    1.7610   28.0520 O.2   217  INH217     -0.2680
      2  C1        30.7550    1.6750   29.1580 C.2   217  INH217      0.2510
      3  C2        31.5930    2.7950   29.5590 C.2   217  INH217      0.0020
      4  C3        32.6940    3.1920   28.6200 C.3   217  INH217      0.0540
      5  C4        31.3000    3.4670   30.7130 C.2   217  INH217     -0.0140
      6  C5        32.0160    4.6450   31.2920 C.3   217  INH217      0.0280
      7  C6        31.8830    4.5370   32.8130 C.3   217  INH217      0.0110
      8  C7        30.5260    4.9550   33.3730 C.3   217  INH217      0.0160
      9  C8        30.1360    6.3820   32.9490 C.3   217  INH217      0.0130
     10  N1        30.5350    0.5780   29.9000 N.am  217  INH217     -0.3230
     11  C9        31.2620    0.1760   30.9950 C.ar  217  INH217      0.0380
     12  C10       30.5720   -0.3600   32.0690 C.ar  217  INH217      0.0660
     13  C11       31.2430   -0.7950   33.2140 C.ar  217  INH217      0.0680
     14  C12       32.6290   -0.6930   33.3080 C.ar  217  INH217      0.0430
     15  C13       33.3410   -0.1360   32.2230 C.ar  217  INH217     -0.0530
     16  C14       32.6530    0.2690   31.0740 C.ar  217  INH217      0.0370
     17  C15       34.8450    0.0460   32.2610 C.3   217  INH217      0.0430
     18  C16       35.2830    1.3740   32.9280 C.3   217  INH217     -0.0120
     19  C17       34.9030    2.6250   32.1160 C.3   217  INH217      0.0100
     20  C18       34.7820    1.4710   34.3980 C.3   217  INH217      0.0390
     21  C19       35.0850    2.7660   35.1430 C.3   217  INH217      0.1500
     22  C21       34.6240    2.7220   36.6000 C.3   217  INH217      0.1540
     23  C22       33.1150    2.4720   36.7100 C.3   217  INH217      0.0350
     24  C23       32.7560    2.4880   38.1920 C.3   217  INH217      0.0170
     25  C24       32.3180    3.6150   36.0900 C.2   217  INH217     -0.0150
     26  C25       31.1440    3.5360   35.3990 C.2   217  INH217     -0.0580
     27  C26       30.4160    2.2410   35.1390 C.3   217  INH217      0.0460
     28  C27       30.5320    4.8330   34.9190 C.3   217  INH217      0.1660
     29  H13       29.7680   -0.0030   29.6290 H     217  INH217      0.1690
     30  O5        29.1710    4.8420   35.3250 O.3   217  INH217     -0.2940
     31  C28       28.7990    5.7700   36.3550 C.2   217  INH217      0.3580
     32  N2        27.5200    5.7230   36.6940 N.am  217  INH217     -0.3460
     33  H42       26.9060    5.0760   36.2400 H     217  INH217      0.1610
     34  H41       27.1670    6.3320   37.4040 H     217  INH217      0.1610
     35  O6        29.6560    6.5060   36.8160 O.2   217  INH217     -0.2390
     36  O4        35.3680    1.6510   37.2210 O.3   217  INH217     -0.3920
     37  H31       34.9540    0.8190   37.0190 H     217  INH217      0.2100
     38  O3        36.5040    3.0320   35.1360 O.3   217  INH217     -0.3880
     39  C20       36.8380    4.3810   34.8920 C.3   217  INH217      0.2020
     40  O2        30.4900   -1.2650   34.2530 O.3   217  INH217     -0.3610
     41  H15       31.0620   -1.6180   34.9240 H     217  INH217      0.2170
@<TRIPOS>BOND
     1     1     2    2
     2     4     3    1
     3     2     3    1
     4     2    10   am
     5     3     5    2
     6    29    10    1
     7    10    11    1
     8     5     6    1
     9    11    16   ar
    10    11    12   ar
    11    16    15   ar
    12     6     7    1
    13    12    13   ar
    14    19    18    1
    15    15    17    1
    16    15    14   ar
    17    17    18    1
    18     7     8    1
    19    18    20    1
    20     9     8    1
    21    13    14   ar
    22    13    40    1
    23     8    28    1
    24    40    41    1
    25    20    21    1
    26    39    38    1
    27    28    30    1
    28    28    26    1
    29    38    21    1
    30    27    26    1
    31    21    22    1
    32    30    31    1
    33    26    25    2
    34    25    23    1
    35    33    32    1
    36    31    32   am
    37    31    35    2
    38    22    23    1
    39    22    36    1
    40    32    34    1
    41    23    24    1
    42    37    36    1
