@<TRIPOS>MOLECULE
./ligand/2cen_lig.pdb
 96 100 0 0 0
SMALL
GASTEIGER

@<TRIPOS>ATOM
      1  C1        14.3070   22.9110    5.6430 C.3   203  INH203      0.1857
      2  C2        14.5790   21.3770    5.3860 C.2   203  INH203      0.2510
      3  O1        13.6330   20.5620    5.4030 O.2   203  INH203     -0.2724
      4  N1        15.8330   20.9260    5.1890 N.am  203  INH203     -0.3034
      5  C3        16.1290   19.4960    4.9900 C.3   203  INH203      0.0749
      6  C4        16.0890   18.9950    3.5740 C.ar  203  INH203     -0.0215
      7  C5        15.2500   19.4110    2.4890 C.ar  203  INH203     -0.0565
      8  C6        15.4250   18.7590    1.2180 C.ar  203  INH203     -0.0614
      9  C7        16.4120   17.7250    1.0620 C.ar  203  INH203     -0.0615
     10  C8        17.2390   17.3220    2.1630 C.ar  203  INH203     -0.0582
     11  C9        17.0540   17.9780    3.4120 C.ar  203  INH203     -0.0398
     12  C10       17.7990   17.7320    4.7040 C.3   203  INH203      0.0008
     13  C11       17.5230   19.0220    5.5170 C.3   203  INH203      0.0816
     14  O2        18.5730   19.9140    5.1680 O.3   203  INH203     -0.3893
     15  C12       14.1110   23.1820    7.1760 C.3   203  INH203      0.0150
     16  C13       14.9730   22.3470    8.1180 C.ar  203  INH203     -0.0440
     17  C14       14.3750   21.2800    8.8770 C.ar  203  INH203     -0.0585
     18  C15       15.1730   20.4770    9.7450 C.ar  203  INH203     -0.0615
     19  C16       16.5770   20.7350    9.8590 C.ar  203  INH203     -0.0617
     20  C17       17.1780   21.7980    9.1060 C.ar  203  INH203     -0.0615
     21  C18       16.3810   22.6040    8.2360 C.ar  203  INH203     -0.0585
     22  O3        15.4120   23.7170    5.2220 O.3   203  INH203     -0.3746
     23  C19       13.0310   22.9480    4.7450 C.3   203  INH203      0.0273
     24  N2        12.0780   23.9550    4.3850 N.4   203  INH203      0.3591
     25  N3        11.4140   24.7110    5.3210 N.am  203  INH203     -0.2809
     26  C20       11.5480   23.4280    3.1080 C.3   203  INH203      0.0145
     27  C21       10.5400   24.4360    6.3090 C.2   203  INH203      0.2681
     28  O4        10.3620   23.2950    6.7660 O.2   203  INH203     -0.2694
     29  C22        9.7620   25.6600    6.8290 C.3   203  INH203      0.1114
     30  C23        9.6900   25.9050    8.3760 C.3   203  INH203     -0.0105
     31  C24        8.9260   27.2100    8.7310 C.3   203  INH203     -0.0579
     32  C25       11.0770   26.0020    9.0310 C.3   203  INH203     -0.0579
     33  N4         8.3920   25.5860    6.2930 N.am  203  INH203     -0.2692
     34  C26        7.8210   26.4840    5.4740 C.2   203  INH203      0.4006
     35  O5         8.4670   27.4840    5.1070 O.2   203  INH203     -0.2265
     36  O6         6.5440   26.2540    5.0890 O.3   203  INH203     -0.4537
     37  C27       10.0340   23.4700    2.9970 C.ar  203  INH203     -0.0023
     38  C28        9.4220   24.4510    2.1580 C.ar  203  INH203     -0.0530
     39  C29        7.9990   24.5180    2.0510 C.ar  203  INH203     -0.0535
     40  C30        7.1660   23.6030    2.7910 C.ar  203  INH203     -0.0164
     41  C31        9.2150   22.5500    3.7300 C.ar  203  INH203     -0.0530
     42  C32        7.7910   22.6170    3.6320 C.ar  203  INH203     -0.0535
     43  C33        5.8550   27.1580    4.2320 C.3   203  INH203      0.0833
     44  C34        8.9130   24.7670    9.0460 C.3   203  INH203     -0.0579
     45  C35        3.4210   22.8550    3.3400 C.ar  203  INH203     -0.0430
     46  C36        4.8410   22.7860    3.4320 C.ar  203  INH203     -0.0512
     47  C37        5.6770   23.6820    2.6840 C.ar  203  INH203      0.0002
     48  C38        5.0560   24.6540    1.8370 C.ar  203  INH203      0.0352
     49  N5         3.6370   24.7180    1.7470 N.ar  203  INH203     -0.2627
     50  C39        2.8160   23.8240    2.4950 C.ar  203  INH203      0.0276
     51  H1        16.5870   21.5830    5.1770 H     203  INH203      0.1495
     52  H2        15.3550   18.9560    5.5550 H     203  INH203      0.0574
     53  H3        14.5090   20.1910    2.6210 H     203  INH203      0.0621
     54  H4        14.8100   19.0490    0.3740 H     203  INH203      0.0618
     55  H5        16.5330   17.2430    0.0990 H     203  INH203      0.0618
     56  H6        17.9820   16.5420    2.0470 H     203  INH203      0.0620
     57  H7        18.8760   17.6030    4.5210 H     203  INH203      0.0339
     58  H8        17.4070   16.8460    5.2240 H     203  INH203      0.0339
     59  H9        17.5010   18.8460    6.6030 H     203  INH203      0.0618
     60  H10       18.4610   20.7320    5.6370 H     203  INH203      0.2099
     61  H11       13.0570   22.9850    7.4210 H     203  INH203      0.0348
     62  H12       14.3390   24.2420    7.3620 H     203  INH203      0.0348
     63  H13       13.3120   21.0860    8.7880 H     203  INH203      0.0620
     64  H14       14.7190   19.6750   10.3160 H     203  INH203      0.0618
     65  H15       17.1870   20.1260   10.5160 H     203  INH203      0.0618
     66  H16       18.2410   21.9900    9.1970 H     203  INH203      0.0618
     67  H17       16.8370   23.4060    7.6670 H     203  INH203      0.0620
     68  H18       15.5660   23.5820    4.2940 H     203  INH203      0.2110
     69  H19       12.4000   22.1620    5.1850 H     203  INH203      0.0854
     70  H20       13.4100   22.6110    3.7690 H     203  INH203      0.0854
     71  H21       12.6790   24.6890    4.0450 H     203  INH203      0.2259
     72  H22       11.6280   25.6860    5.2540 H     203  INH203      0.2003
     73  H23       11.8720   22.3820    3.0060 H     203  INH203      0.0873
     74  H24       11.9710   24.0250    2.2870 H     203  INH203      0.0873
     75  H25       10.2540   26.5460    6.4010 H     203  INH203      0.0602
     76  H26        8.9030   27.3360    9.8230 H     203  INH203      0.0236
     77  H27        7.8970   27.1480    8.3480 H     203  INH203      0.0236
     78  H28        9.4370   28.0700    8.2730 H     203  INH203      0.0236
     79  H29       11.6540   25.0940    8.8040 H     203  INH203      0.0236
     80  H30       10.9620   26.1000   10.1200 H     203  INH203      0.0236
     81  H31       11.6080   26.8820    8.6380 H     203  INH203      0.0236
     82  H32        7.8390   24.7980    6.5630 H     203  INH203      0.1528
     83  H33       10.0390   25.1470    1.6010 H     203  INH203      0.0622
     84  H34        7.5420   25.2620    1.4090 H     203  INH203      0.0624
     85  H35        9.6780   21.8000    4.3610 H     203  INH203      0.0622
     86  H36        7.1790   21.9210    4.1940 H     203  INH203      0.0624
     87  H37        4.8380   26.7840    4.0460 H     203  INH203      0.0661
     88  H38        6.3950   27.2420    3.2770 H     203  INH203      0.0661
     89  H39        5.8000   28.1470    4.7100 H     203  INH203      0.0661
     90  H40        7.9160   24.6840    8.5880 H     203  INH203      0.0236
     91  H41        8.8060   24.9790   10.1200 H     203  INH203      0.0236
     92  H42        9.4580   23.8210    8.9110 H     203  INH203      0.0236
     93  H43        2.8050   22.1710    3.9120 H     203  INH203      0.0633
     94  H44        5.2980   22.0450    4.0770 H     203  INH203      0.0625
     95  H45        5.6670   25.3420    1.2640 H     203  INH203      0.0836
     96  H46        1.7360   23.8830    2.4200 H     203  INH203      0.0829
@<TRIPOS>BOND
     1     1    23    1
     2     1    22    1
     3     1    15    1
     4     1     2    1
     5     2     4   am
     6     2     3    2
     7     4    51    1
     8     4     5    1
     9     5    52    1
    10     5    13    1
    11     5     6    1
    12     6    11   ar
    13     6     7   ar
    14     7    53    1
    15     7     8   ar
    16     8    54    1
    17     8     9   ar
    18     9    55    1
    19     9    10   ar
    20    10    56    1
    21    10    11   ar
    22    11    12    1
    23    12    58    1
    24    12    57    1
    25    12    13    1
    26    13    59    1
    27    13    14    1
    28    14    60    1
    29    15    62    1
    30    15    61    1
    31    15    16    1
    32    16    21   ar
    33    16    17   ar
    34    17    63    1
    35    17    18   ar
    36    18    64    1
    37    18    19   ar
    38    19    65    1
    39    19    20   ar
    40    20    66    1
    41    20    21   ar
    42    21    67    1
    43    22    68    1
    44    23    24    1
    45    23    70    1
    46    23    69    1
    47    24    26    1
    48    24    71    1
    49    24    25    1
    50    25    72    1
    51    25    27   am
    52    26    37    1
    53    26    74    1
    54    26    73    1
    55    27    29    1
    56    27    28    2
    57    29    75    1
    58    29    33    1
    59    29    30    1
    60    30    44    1
    61    30    32    1
    62    30    31    1
    63    31    78    1
    64    31    77    1
    65    31    76    1
    66    32    81    1
    67    32    80    1
    68    32    79    1
    69    33    82    1
    70    33    34   am
    71    34    36    1
    72    34    35    2
    73    36    43    1
    74    37    38   ar
    75    37    41   ar
    76    38    39   ar
    77    38    83    1
    78    39    40   ar
    79    39    84    1
    80    40    47    1
    81    40    42   ar
    82    41    85    1
    83    41    42   ar
    84    42    86    1
    85    43    89    1
    86    43    88    1
    87    43    87    1
    88    44    92    1
    89    44    91    1
    90    44    90    1
    91    45    93    1
    92    45    50   ar
    93    45    46   ar
    94    46    94    1
    95    46    47   ar
    96    47    48   ar
    97    48    95    1
    98    48    49   ar
    99    49    50   ar
   100    50    96    1
