@<TRIPOS>MOLECULE
/tmp/ewbell/vina_2cen_2cen_lig/vina/vina3.pdbqt
 57 61 0 0 0
SMALL
GASTEIGER

@<TRIPOS>ATOM
      1  N2        17.8680   19.0440    6.9010 N.4   203  INH203      0.0180
      2  H21       18.5580   19.6170    7.3590 H     203  INH203      0.3090
      3  C19       18.6810   18.0030    6.3470 C.3   203  INH203      0.3100
      4  C1        18.4510   16.8600    5.3090 C.3   203  INH203      0.1680
      5  O3        17.3020   16.0320    5.5100 O.3   203  INH203     -0.3780
      6  H18       16.9790   16.1500    6.3960 H     203  INH203      0.2110
      7  C12       18.4570   17.2610    3.7910 C.3   203  INH203      0.0880
      8  C13       17.1060   17.6430    3.1950 C.ar  203  INH203     -0.0550
      9  C18       17.0350   18.3480    1.9460 C.ar  203  INH203      0.0070
     10  C17       15.7630   18.7180    1.4130 C.ar  203  INH203      0.0010
     11  C16       14.5590   18.3900    2.1210 C.ar  203  INH203      0.0000
     12  C15       14.6260   17.6860    3.3670 C.ar  203  INH203      0.0010
     13  C14       15.8960   17.3140    3.9010 C.ar  203  INH203      0.0070
     14  C2        19.7840   16.1020    5.6830 C.2   203  INH203      0.2550
     15  N1        20.5550   15.5530    4.7220 N.am  203  INH203     -0.3470
     16  H1        20.2510   15.6070    3.7710 H     203  INH203      0.1630
     17  O1        20.1560   16.0380    6.8730 O.2   203  INH203     -0.2700
     18  C3        21.8280   14.8770    5.0290 C.3   203  INH203      0.1470
     19  C11       23.0240   15.2470    4.0920 C.3   203  INH203      0.1490
     20  C10       23.9880   14.0440    4.2440 C.3   203  INH203      0.0730
     21  C9        23.0560   12.8980    4.5610 C.ar  203  INH203     -0.0470
     22  C4        21.8090   13.3750    5.0150 C.ar  203  INH203     -0.0270
     23  C8        23.3200   11.5050    4.4450 C.ar  203  INH203      0.0080
     24  C5        20.7520   12.4790    5.3820 C.ar  203  INH203      0.0100
     25  C6        21.0010   11.0660    5.2690 C.ar  203  INH203      0.0010
     26  C7        22.2760   10.5890    4.8030 C.ar  203  INH203      0.0010
     27  O2        22.6600   15.2620    2.7190 O.3   203  INH203     -0.3930
     28  H10       22.9350   14.4500    2.3100 H     203  INH203      0.2100
     29  C20       17.5790   19.8700    5.7080 C.3   203  INH203      0.3010
     30  C27       16.3920   20.8050    5.8700 C.ar  203  INH203     -0.0300
     31  C28       15.4760   20.9630    4.7860 C.ar  203  INH203      0.0100
     32  C29       14.3620   21.8490    4.9100 C.ar  203  INH203      0.0130
     33  C30       14.1540   22.5960    6.1260 C.ar  203  INH203     -0.0250
     34  C32       15.0800   22.4280    7.2140 C.ar  203  INH203      0.0130
     35  C31       16.1900   21.5350    7.0860 C.ar  203  INH203      0.0100
     36  C37       12.9930   23.5280    6.2510 C.2   203  INH203     -0.0110
     37  C36       12.5770   24.0130    7.5360 C.2   203  INH203      0.0150
     38  C35       11.4740   24.9050    7.6660 C.2   203  INH203      0.0180
     39  C39       10.7680   25.3250    6.5060 C.3   203  INH203      0.0870
     40  N5        11.1720   24.8490    5.2240 N.pl3 203  INH203     -0.3740
     41  C38       12.2740   23.9590    5.0900 C.2   203  INH203      0.0990
     42  H5        10.6640   25.1510    4.3930 H     203  INH203      0.1640
     43  N3        17.0660   18.8480    8.0000 N.am  203  INH203     -0.1840
     44  H22       16.0950   18.9770    7.7990 H     203  INH203      0.1970
     45  C21       17.2940   18.5210    9.2880 C.2   203  INH203      0.2650
     46  O4        16.3890   18.3830   10.1280 O.2   203  INH203     -0.2690
     47  C22       18.7810   18.3400    9.6450 C.3   203  INH203      0.1880
     48  N4        19.2420   19.5730   10.3050 N.am  203  INH203     -0.3230
     49  H32       18.9620   19.7140   11.2540 H     203  INH203      0.1650
     50  C26       20.0050   20.5240    9.7440 C.2   203  INH203      0.3600
     51  O5        21.1140   20.8000   10.2420 O.2   203  INH203     -0.2390
     52  O6        19.5160   21.1520    8.6500 O.3   203  INH203     -0.3090
     53  C33       20.3520   21.4640    7.5390 C.3   203  INH203      0.2150
     54  C23       19.2020   17.1080   10.5190 C.3   203  INH203     -0.0220
     55  C34       20.7100   16.8710   10.3920 C.3   203  INH203      0.0170
     56  C25       18.8590   17.2860   12.0070 C.3   203  INH203      0.0170
     57  C24       18.5230   15.7930   10.0490 C.3   203  INH203      0.0170
@<TRIPOS>BOND
     1    10     9   ar
     2    10    11   ar
     3     9     8   ar
     4    11    12   ar
     5    28    27    1
     6    27    19    1
     7     8     7    1
     8     8    13   ar
     9    12    13   ar
    10    16    15    1
    11     7     4    1
    12    19    20    1
    13    19    18    1
    14    20    21    1
    15    42    40    1
    16    23    21   ar
    17    23    26   ar
    18    21    22   ar
    19    15    18    1
    20    15    14   am
    21    31    32   ar
    22    31    30   ar
    23    26    25   ar
    24    32    33   ar
    25    22    18    1
    26    22    24   ar
    27    41    40    1
    28    41    36    2
    29    40    39    1
    30    25    24   ar
    31     4     5    1
    32     4    14    1
    33     4     3    1
    34     5     6    1
    35    14    17    2
    36    29    30    1
    37    29     1    1
    38    30    35   ar
    39    33    36    1
    40    33    34   ar
    41    36    37    1
    42     3     1    1
    43    39    38    1
    44     1     2    1
    45     1    43    1
    46    35    34   ar
    47    37    38    2
    48    53    52    1
    49    44    43    1
    50    43    45   am
    51    52    50    1
    52    45    47    1
    53    45    46    2
    54    47    48    1
    55    47    54    1
    56    50    51    2
    57    50    48   am
    58    57    54    1
    59    48    49    1
    60    55    54    1
    61    54    56    1
