@<TRIPOS>MOLECULE
/tmp/ewbell/vina_2cen_2cen_lig/vina/vina2.pdbqt
 57 61 0 0 0
SMALL
GASTEIGER

@<TRIPOS>ATOM
      1  N2        18.9980   16.1140    8.2310 N.4   203  INH203      0.0180
      2  H21       19.9900   16.0710    8.0550 H     203  INH203      0.3090
      3  C19       18.5920   17.1500    7.3290 C.3   203  INH203      0.3100
      4  C1        18.4040   17.2530    5.7830 C.3   203  INH203      0.1680
      5  O3        19.5620   17.0090    4.9790 O.3   203  INH203     -0.3780
      6  H18       20.0970   17.7940    4.9480 H     203  INH203      0.2110
      7  C12       17.2320   16.4250    5.1480 C.3   203  INH203      0.0880
      8  C13       16.5860   17.0270    3.9040 C.ar  203  INH203     -0.0550
      9  C18       17.3200   17.1160    2.6730 C.ar  203  INH203      0.0070
     10  C17       16.7080   17.7020    1.5230 C.ar  203  INH203      0.0010
     11  C16       15.3660   18.2040    1.5960 C.ar  203  INH203      0.0000
     12  C15       14.6300   18.1160    2.8220 C.ar  203  INH203      0.0010
     13  C14       15.2390   17.5300    3.9710 C.ar  203  INH203      0.0070
     14  C2        18.0370   18.7880    5.8190 C.2   203  INH203      0.2550
     15  N1        17.1160   19.2540    6.6850 N.am  203  INH203     -0.3470
     16  H1        16.6450   18.6050    7.2840 H     203  INH203      0.1630
     17  O1        18.6280   19.5910    5.0680 O.2   203  INH203     -0.2700
     18  C3        16.7800   20.6860    6.7790 C.3   203  INH203      0.1470
     19  C11       17.2470   21.3980    8.0900 C.3   203  INH203      0.1490
     20  C10       16.3140   22.6310    8.1850 C.3   203  INH203      0.0730
     21  C9        15.0590   22.1620    7.4870 C.ar  203  INH203     -0.0470
     22  C4        15.3250   21.0410    6.6730 C.ar  203  INH203     -0.0270
     23  C8        13.7520   22.7170    7.5810 C.ar  203  INH203      0.0080
     24  C5        14.2910   20.4100    5.9050 C.ar  203  INH203      0.0100
     25  C6        12.9640   20.9580    5.9900 C.ar  203  INH203      0.0010
     26  C7        12.7010   22.1010    6.8230 C.ar  203  INH203      0.0010
     27  O2        16.9740   20.6330    9.2560 O.3   203  INH203     -0.3930
     28  H10       16.3650   19.9370    9.0420 H     203  INH203      0.2100
     29  C20       18.9850   16.8210    9.5310 C.3   203  INH203      0.3010
     30  C27       17.9340   16.3160   10.5040 C.ar  203  INH203     -0.0300
     31  C28       16.5630   16.6490   10.2860 C.ar  203  INH203      0.0100
     32  C29       15.5600   16.1990   11.1980 C.ar  203  INH203      0.0130
     33  C30       15.9200   15.4080   12.3490 C.ar  203  INH203     -0.0250
     34  C32       17.3030   15.0750   12.5600 C.ar  203  INH203      0.0130
     35  C31       18.3020   15.5230   11.6400 C.ar  203  INH203      0.0100
     36  C37       14.8700   14.9450   13.3060 C.2   203  INH203     -0.0110
     37  C36       13.4840   15.2310   13.0680 C.3   203  INH203      0.0150
     38  C35       12.4750   14.7920   13.9720 C.2   203  INH203      0.0180
     39  C39       12.8400   14.0570   15.1330 C.2   203  INH203      0.0870
     40  N5        14.2140   13.7670   15.3790 N.pl3 203  INH203     -0.3740
     41  C38       15.2250   14.2040   14.4780 C.2   203  INH203      0.0990
     42  H5        14.4760   13.2410   16.2130 H     203  INH203      0.1640
     43  N3        18.7360   14.7860    7.9950 N.am  203  INH203     -0.1840
     44  H22       17.8780   14.4810    8.4090 H     203  INH203      0.1970
     45  C21       19.3730   13.8010    7.3320 C.2   203  INH203      0.2650
     46  O4        18.9310   12.6440    7.2370 O.2   203  INH203     -0.2690
     47  C22       20.7140   14.2230    6.7020 C.3   203  INH203      0.1880
     48  N4        21.7950   13.7710    7.5940 N.am  203  INH203     -0.3230
     49  H32       22.2130   12.8850    7.3910 H     203  INH203      0.1650
     50  C26       22.2700   14.4440    8.6540 C.2   203  INH203      0.3600
     51  O5        23.4710   14.7760    8.6880 O.2   203  INH203     -0.2390
     52  O6        21.4030   14.7260    9.6530 O.3   203  INH203     -0.3090
     53  C33       21.7310   14.4660   11.0140 C.3   203  INH203      0.2150
     54  C23       21.0370   13.7620    5.2380 C.3   203  INH203     -0.0220
     55  C34       21.9860   14.7660    4.5750 C.3   203  INH203      0.0170
     56  C25       21.6810   12.3680    5.1790 C.3   203  INH203      0.0170
     57  C24       19.7690   13.7180    4.3420 C.3   203  INH203      0.0170
@<TRIPOS>BOND
     1    10    11   ar
     2    10     9   ar
     3    11    12   ar
     4     9     8   ar
     5    12    13   ar
     6     8    13   ar
     7     8     7    1
     8    57    54    1
     9    55    54    1
    10     6     5    1
    11     5     4    1
    12    17    14    2
    13     7     4    1
    14    56    54    1
    15    54    47    1
    16     4    14    1
    17     4     3    1
    18    14    15   am
    19    24    25   ar
    20    24    22   ar
    21    25    26   ar
    22    22    18    1
    23    22    21   ar
    24    15    18    1
    25    15    16    1
    26    47    45    1
    27    47    48    1
    28    18    19    1
    29    26    23   ar
    30    46    45    2
    31     3     1    1
    32    45    43   am
    33    49    48    1
    34    21    23   ar
    35    21    20    1
    36    48    50   am
    37    43     1    1
    38    43    44    1
    39     2     1    1
    40    19    20    1
    41    19    27    1
    42     1    29    1
    43    50    51    2
    44    50    52    1
    45    28    27    1
    46    29    30    1
    47    52    53    1
    48    31    30   ar
    49    31    32   ar
    50    30    35   ar
    51    32    33   ar
    52    35    34   ar
    53    33    34   ar
    54    33    36    1
    55    37    36    1
    56    37    38    1
    57    36    41    2
    58    38    39    2
    59    41    40    1
    60    39    40    1
    61    40    42    1
