@<TRIPOS>MOLECULE
/tmp/ewbell/vina_2cen_2cen_lig/vina/vina1.pdbqt
 57 61 0 0 0
SMALL
GASTEIGER

@<TRIPOS>ATOM
      1  N2        17.6260   19.3080    9.9450 N.4   203  INH203      0.0180
      2  H21       18.5700   19.2260   10.2890 H     203  INH203      0.3090
      3  C19       17.8300   19.2410    8.5290 C.3   203  INH203      0.3100
      4  C1        18.7300   18.3830    7.5860 C.3   203  INH203      0.1680
      5  O3        20.1450   18.5170    7.7520 O.3   203  INH203     -0.3780
      6  H18       20.4910   19.0830    7.0720 H     203  INH203      0.2110
      7  C12       18.4280   16.8440    7.5150 C.3   203  INH203      0.0880
      8  C13       19.3630   16.0200    6.6350 C.ar  203  INH203     -0.0550
      9  C18       19.0310   15.7620    5.2610 C.ar  203  INH203      0.0070
     10  C17       19.9070   14.9700    4.4570 C.ar  203  INH203      0.0010
     11  C16       21.1130   14.4320    5.0170 C.ar  203  INH203      0.0000
     12  C15       21.4480   14.6880    6.3870 C.ar  203  INH203      0.0010
     13  C14       20.5750   15.4790    7.1910 C.ar  203  INH203      0.0070
     14  C2        18.2310   19.1030    6.2720 C.2   203  INH203      0.2550
     15  N1        16.9370   19.0340    5.9010 N.am  203  INH203     -0.3470
     16  H1        16.3040   18.4920    6.4550 H     203  INH203      0.1630
     17  O1        19.0270   19.7760    5.5860 O.2   203  INH203     -0.2700
     18  C3        16.4260   19.7300    4.7070 C.3   203  INH203      0.1470
     19  C11       14.9630   20.2710    4.8230 C.3   203  INH203      0.1490
     20  C10       14.5090   20.4060    3.3480 C.3   203  INH203      0.0730
     21  C9        15.3140   19.3380    2.6450 C.ar  203  INH203     -0.0470
     22  C4        16.4210   18.9470    3.4260 C.ar  203  INH203     -0.0270
     23  C8        15.0590   18.7530    1.3720 C.ar  203  INH203      0.0080
     24  C5        17.3410   17.9450    2.9730 C.ar  203  INH203      0.0100
     25  C6        17.0980   17.3410    1.6900 C.ar  203  INH203      0.0010
     26  C7        15.9650   17.7450    0.9000 C.ar  203  INH203      0.0010
     27  O2        14.0740   19.3250    5.4010 O.3   203  INH203     -0.3930
     28  H10       13.3210   19.7770    5.7600 H     203  INH203      0.2100
     29  C20       17.3900   20.7550   10.1490 C.3   203  INH203      0.3010
     30  C27       16.3340   21.3500    9.2330 C.ar  203  INH203     -0.0300
     31  C28       14.9710   20.9530    9.3890 C.ar  203  INH203      0.0100
     32  C29       13.9640   21.4880    8.5280 C.ar  203  INH203      0.0130
     33  C30       14.3120   22.4270    7.4910 C.ar  203  INH203     -0.0250
     34  C32       15.6880   22.8220    7.3420 C.ar  203  INH203      0.0130
     35  C31       16.6900   22.2890    8.2110 C.ar  203  INH203      0.0100
     36  C37       13.2590   22.9780    6.5860 C.2   203  INH203     -0.0110
     37  C36       11.8680   22.8340    6.9080 C.2   203  INH203      0.0150
     38  C35       10.8560   23.3590    6.0540 C.2   203  INH203      0.0180
     39  C39       11.2230   24.0360    4.8600 C.3   203  INH203      0.0870
     40  N5        12.6020   24.1840    4.5290 N.pl3 203  INH203     -0.3740
     41  C38       13.6160   23.6630    5.3800 C.2   203  INH203      0.0990
     42  H5        12.8650   24.6690    3.6710 H     203  INH203      0.1640
     43  N3        17.1010   18.2630   10.6660 N.am  203  INH203     -0.1840
     44  H22       16.1180   18.3580   10.8250 H     203  INH203      0.1970
     45  C21       17.6100   17.1380   11.2050 C.2   203  INH203      0.2650
     46  O4        16.9260   16.3050   11.8220 O.2   203  INH203     -0.2690
     47  C22       19.1280   16.9670   11.0040 C.3   203  INH203      0.1880
     48  N4        19.8130   17.9200   11.8940 N.am  203  INH203     -0.3230
     49  H32       19.4750   17.9900   12.8330 H     203  INH203      0.1650
     50  C26       20.8500   18.7020   11.5560 C.2   203  INH203      0.3600
     51  O5        21.9310   18.5920   12.1670 O.2   203  INH203     -0.2390
     52  O6        20.6610   19.5920   10.5550 O.3   203  INH203     -0.3090
     53  C33       20.9800   20.9700   10.7180 C.3   203  INH203      0.2150
     54  C23       19.7590   15.5450   11.2000 C.3   203  INH203     -0.0220
     55  C34       19.7890   15.1920   12.6910 C.3   203  INH203      0.0170
     56  C25       18.9930   14.4420   10.4520 C.3   203  INH203      0.0170
     57  C24       21.2340   15.4840   10.7170 C.3   203  INH203      0.0170
@<TRIPOS>BOND
     1    26    23   ar
     2    26    25   ar
     3    23    21   ar
     4    25    24   ar
     5    21    20    1
     6    21    22   ar
     7    24    22   ar
     8    20    19    1
     9    22    18    1
    10    42    40    1
    11    10    11   ar
    12    10     9   ar
    13    40    39    1
    14    40    41    1
    15    18    19    1
    16    18    15    1
    17    19    27    1
    18    39    38    1
    19    11    12   ar
    20     9     8   ar
    21    41    36    2
    22    27    28    1
    23    17    14    2
    24    15    14   am
    25    15    16    1
    26    38    37    2
    27    14     4    1
    28    12    13   ar
    29    36    37    1
    30    36    33    1
    31     8    13   ar
    32     8     7    1
    33     6     5    1
    34    34    33   ar
    35    34    35   ar
    36    33    32   ar
    37     7     4    1
    38     4     5    1
    39     4     3    1
    40    35    30   ar
    41    32    31   ar
    42     3     1    1
    43    30    31   ar
    44    30    29    1
    45     1    29    1
    46     1     2    1
    47     1    43    1
    48    56    54    1
    49    52    53    1
    50    52    50    1
    51    43    44    1
    52    43    45   am
    53    57    54    1
    54    47    54    1
    55    47    45    1
    56    47    48    1
    57    54    55    1
    58    45    46    2
    59    50    48   am
    60    50    51    2
    61    48    49    1
