@<TRIPOS>MOLECULE
/tmp/ewbell/vina_2cen_2cen_lig/vina/vina4.pdbqt
 57 61 0 0 0
SMALL
GASTEIGER

@<TRIPOS>ATOM
      1  N2         6.1110   24.9360    2.3050 N.4   203  INH203      0.0180
      2  H21        6.8890   25.5100    2.0220 H     203  INH203      0.3090
      3  C19        6.1490   25.0850    3.7290 C.3   203  INH203      0.3100
      4  C1         5.6960   26.1920    4.7320 C.3   203  INH203      0.1680
      5  O3         5.0500   27.3390    4.1730 O.3   203  INH203     -0.3780
      6  H18        4.1180   27.1710    4.0940 H     203  INH203      0.2110
      7  C12        4.8250   25.7360    5.9550 C.3   203  INH203      0.0880
      8  C13        4.0490   26.8380    6.6710 C.ar  203  INH203     -0.0550
      9  C18        4.5090   28.1970    6.6280 C.ar  203  INH203      0.0070
     10  C17        3.7830   29.2130    7.3220 C.ar  203  INH203      0.0010
     11  C16        2.5990   28.8780    8.0610 C.ar  203  INH203      0.0000
     12  C15        2.1370   27.5230    8.1050 C.ar  203  INH203      0.0010
     13  C14        2.8600   26.5070    7.4120 C.ar  203  INH203      0.0070
     14  C2         7.1670   26.5260    5.1990 C.2   203  INH203      0.2550
     15  N1         7.7440   25.8310    6.1990 N.am  203  INH203     -0.3470
     16  H1         7.2130   25.1220    6.6630 H     203  INH203      0.1630
     17  O1         7.8220   27.4140    4.6160 O.2   203  INH203     -0.2700
     18  C3         9.1300   26.0840    6.6310 C.3   203  INH203      0.1470
     19  C11       10.0840   24.8460    6.5780 C.3   203  INH203      0.1490
     20  C10       11.2120   25.2140    7.5740 C.3   203  INH203      0.0730
     21  C9        10.5120   26.1160    8.5640 C.ar  203  INH203     -0.0470
     22  C4         9.3100   26.6200    8.0230 C.ar  203  INH203     -0.0270
     23  C8        10.9360   26.4590    9.8780 C.ar  203  INH203      0.0080
     24  C5         8.4640   27.5020    8.7710 C.ar  203  INH203      0.0100
     25  C6         8.8760   27.8590   10.1020 C.ar  203  INH203      0.0010
     26  C7        10.1020   27.3380   10.6470 C.ar  203  INH203      0.0010
     27  O2         9.4860   23.6710    7.1110 O.3   203  INH203     -0.3930
     28  H10        8.6680   23.8980    7.5360 H     203  INH203      0.2100
     29  C20        6.6930   23.5870    2.1260 C.3   203  INH203      0.3010
     30  C27        8.1480   23.4740    2.5510 C.ar  203  INH203     -0.0300
     31  C28        8.5160   22.5020    3.5310 C.ar  203  INH203      0.0100
     32  C29        9.8740   22.3900    3.9570 C.ar  203  INH203      0.0130
     33  C30       10.8870   23.2580    3.4080 C.ar  203  INH203     -0.0250
     34  C32       10.5080   24.2330    2.4200 C.ar  203  INH203      0.0130
     35  C31        9.1470   24.3360    1.9930 C.ar  203  INH203      0.0100
     36  C37       12.3060   23.1440    3.8610 C.2   203  INH203     -0.0110
     37  C36       13.0580   21.9450    3.6220 C.3   203  INH203      0.0150
     38  C35       14.4120   21.8280    4.0470 C.2   203  INH203      0.0180
     39  C39       15.0360   22.9130    4.7220 C.2   203  INH203      0.0870
     40  N5        14.2980   24.1080    4.9650 N.pl3 203  INH203     -0.3740
     41  C38       12.9450   24.2300    4.5410 C.2   203  INH203      0.0990
     42  H5        14.7460   24.8860    5.4500 H     203  INH203      0.1640
     43  N3         5.1640   25.5510    1.5230 N.am  203  INH203     -0.1840
     44  H22        5.5650   26.1210    0.8050 H     203  INH203      0.1970
     45  C21        3.8160   25.5600    1.5040 C.2   203  INH203      0.2650
     46  O4         3.1480   26.1980    0.6740 O.2   203  INH203     -0.2690
     47  C22        3.1590   24.7140    2.6120 C.3   203  INH203      0.1880
     48  N4         1.8610   25.3280    2.9390 N.am  203  INH203     -0.3230
     49  H32        1.0720   25.0430    2.3940 H     203  INH203      0.1650
     50  C26        1.6440   26.2340    3.9050 C.2   203  INH203      0.3600
     51  O5         0.8450   25.9760    4.8260 O.2   203  INH203     -0.2390
     52  O6         2.3100   27.4080    3.8200 O.3   203  INH203     -0.3090
     53  C33        1.7040   28.6350    4.2150 C.3   203  INH203      0.2150
     54  C23        2.9480   23.1810    2.3640 C.3   203  INH203     -0.0220
     55  C34        1.4700   22.8230    2.5480 C.3   203  INH203      0.0170
     56  C25        3.3860   22.7360    0.9590 C.3   203  INH203      0.0170
     57  C24        3.7290   22.3060    3.3830 C.3   203  INH203      0.0170
@<TRIPOS>BOND
     1    46    45    2
     2    44    43    1
     3    56    54    1
     4    45    43   am
     5    45    47    1
     6    43     1    1
     7    35    34   ar
     8    35    30   ar
     9     2     1    1
    10    29     1    1
    11    29    30    1
    12     1     3    1
    13    54    55    1
    14    54    47    1
    15    54    57    1
    16    49    48    1
    17    34    33   ar
    18    30    31   ar
    19    47    48    1
    20    48    50   am
    21    33    36    1
    22    33    32   ar
    23    31    32   ar
    24    37    36    1
    25    37    38    1
    26     3     4    1
    27    52    50    1
    28    52    53    1
    29    36    41    2
    30    50    51    2
    31    38    39    2
    32     6     5    1
    33     5     4    1
    34    41    40    1
    35    17    14    2
    36    39    40    1
    37     4    14    1
    38     4     7    1
    39    40    42    1
    40    14    15   am
    41     7     8    1
    42    15    18    1
    43    15    16    1
    44    19    18    1
    45    19    27    1
    46    19    20    1
    47     9     8   ar
    48     9    10   ar
    49    18    22    1
    50     8    13   ar
    51    27    28    1
    52    10    11   ar
    53    13    12   ar
    54    20    21    1
    55    22    21   ar
    56    22    24   ar
    57    11    12   ar
    58    21    23   ar
    59    24    25   ar
    60    23    26   ar
    61    25    26   ar
