@<TRIPOS>MOLECULE
/tmp/ewbell/vina_2cen_2cen_lig/vina/vina5.pdbqt
 57 61 0 0 0
SMALL
GASTEIGER

@<TRIPOS>ATOM
      1  N2        18.1810   18.6700    7.9570 N.4   203  INH203      0.0180
      2  H21       18.9650   18.7040    8.5890 H     203  INH203      0.3090
      3  C19       18.7010   17.8570    6.8980 C.3   203  INH203      0.3100
      4  C1        18.1860   17.4210    5.4910 C.3   203  INH203      0.1680
      5  O3        16.8450   16.9270    5.4230 O.3   203  INH203     -0.3780
      6  H18       16.6040   16.5490    6.2610 H     203  INH203      0.2110
      7  C12       18.3460   18.4520    4.3190 C.3   203  INH203      0.0880
      8  C13       17.2320   18.4570    3.2760 C.ar  203  INH203     -0.0550
      9  C18       16.0920   19.3160    3.4330 C.ar  203  INH203      0.0070
     10  C17       15.0480   19.2920    2.4580 C.ar  203  INH203      0.0010
     11  C16       15.1340   18.4130    1.3270 C.ar  203  INH203      0.0000
     12  C15       16.2710   17.5560    1.1670 C.ar  203  INH203      0.0010
     13  C14       17.3150   17.5790    2.1390 C.ar  203  INH203      0.0070
     14  C2        19.2400   16.2540    5.3440 C.2   203  INH203      0.2550
     15  N1        19.4290   15.3700    6.3440 N.am  203  INH203     -0.3470
     16  H1        18.9120   15.4840    7.1930 H     203  INH203      0.1630
     17  O1        19.8810   16.1190    4.2820 O.2   203  INH203     -0.2700
     18  C3        20.3700   14.2420    6.2260 C.3   203  INH203      0.1470
     19  C11       19.7280   12.8730    5.8270 C.3   203  INH203      0.1490
     20  C10       20.7580   11.8300    6.3270 C.3   203  INH203      0.0730
     21  C9        21.4040   12.5260    7.5020 C.ar  203  INH203     -0.0470
     22  C4        21.1830   13.9180    7.4470 C.ar  203  INH203     -0.0270
     23  C8        22.1480   11.9340    8.5620 C.ar  203  INH203      0.0080
     24  C5        21.6980   14.7990    8.4530 C.ar  203  INH203      0.0100
     25  C6        22.4510   14.2180    9.5320 C.ar  203  INH203      0.0010
     26  C7        22.6710   12.7970    9.5820 C.ar  203  INH203      0.0010
     27  O2        18.5360   12.5960    6.5500 O.3   203  INH203     -0.3930
     28  H10       17.7860   12.7140    5.9800 H     203  INH203      0.2100
     29  C20       18.2540   20.0230    7.3640 C.3   203  INH203      0.3010
     30  C27       16.9240   20.7550    7.3140 C.ar  203  INH203     -0.0300
     31  C28       16.7430   21.9300    8.1060 C.ar  203  INH203      0.0100
     32  C29       15.4950   22.6250    8.0870 C.ar  203  INH203      0.0130
     33  C30       14.4040   22.1460    7.2750 C.ar  203  INH203     -0.0250
     34  C32       14.5950   20.9630    6.4790 C.ar  203  INH203      0.0130
     35  C31       15.8490   20.2760    6.4970 C.ar  203  INH203      0.0100
     36  C37       13.0970   22.8700    7.2640 C.2   203  INH203     -0.0110
     37  C36       13.0130   24.2380    7.6880 C.2   203  INH203      0.0150
     38  C35       11.7720   24.9380    7.6780 C.2   203  INH203      0.0180
     39  C39       10.5930   24.2750    7.2420 C.3   203  INH203      0.0870
     40  N5        10.6650   22.9150    6.8190 N.pl3 203  INH203     -0.3740
     41  C38       11.9020   22.2130    6.8260 C.2   203  INH203      0.0990
     42  H5         9.8180   22.4400    6.5070 H     203  INH203      0.1640
     43  N3        17.2630   18.2000    8.8650 N.am  203  INH203     -0.1840
     44  H22       16.3250   18.2290    8.5180 H     203  INH203      0.1970
     45  C21       17.3400   17.7090   10.1170 C.2   203  INH203      0.2650
     46  O4        16.3510   17.3220   10.7620 O.2   203  INH203     -0.2690
     47  C22       18.7660   17.6720   10.6990 C.3   203  INH203      0.1880
     48  N4        18.9790   18.9190   11.4530 N.am  203  INH203     -0.3230
     49  H32       18.3040   19.1490   12.1540 H     203  INH203      0.1650
     50  C26       20.0000   19.7740   11.2820 C.2   203  INH203      0.3600
     51  O5        20.7710   20.0140   12.2320 O.2   203  INH203     -0.2390
     52  O6        20.1360   20.3480   10.0650 O.3   203  INH203     -0.3090
     53  C33       20.4040   21.7400    9.9270 C.3   203  INH203      0.2150
     54  C23       19.1820   16.4570   11.5980 C.3   203  INH203     -0.0220
     55  C34       20.7050   16.4330   11.7670 C.3   203  INH203      0.0170
     56  C25       18.5370   16.4970   12.9930 C.3   203  INH203      0.0170
     57  C24       18.8020   15.0930   10.9590 C.3   203  INH203      0.0170
@<TRIPOS>BOND
     1    12    11   ar
     2    12    13   ar
     3    11    10   ar
     4    13     8   ar
     5    10     9   ar
     6     8     9   ar
     7     8     7    1
     8    17    14    2
     9     7     4    1
    10    14     4    1
    11    14    15   am
    12     5     4    1
    13     5     6    1
    14     4     3    1
    15    19    18    1
    16    19    20    1
    17    19    27    1
    18    28    27    1
    19    18    15    1
    20    18    22    1
    21    20    21    1
    22    15    16    1
    23    34    35   ar
    24    34    33   ar
    25    35    30   ar
    26    42    40    1
    27    40    41    1
    28    40    39    1
    29    41    36    2
    30     3     1    1
    31    39    38    1
    32    36    33    1
    33    36    37    1
    34    33    32   ar
    35    30    29    1
    36    30    31   ar
    37    29     1    1
    38    22    21   ar
    39    22    24   ar
    40    21    23   ar
    41    38    37    2
    42     1     2    1
    43     1    43    1
    44    32    31   ar
    45    24    25   ar
    46    44    43    1
    47    23    26   ar
    48    43    45   am
    49    25    26   ar
    50    53    52    1
    51    52    50    1
    52    45    47    1
    53    45    46    2
    54    47    48    1
    55    47    54    1
    56    57    54    1
    57    50    48   am
    58    50    51    2
    59    48    49    1
    60    54    55    1
    61    54    56    1
