@<TRIPOS>MOLECULE
./ligand/2q54_lig.pdb
 92 95 0 0 0
SMALL
GASTEIGER

@<TRIPOS>ATOM
      1  O1        21.9950    4.1030   19.0340 O.2   203  INH203     -0.2761
      2  C1        21.9140    3.3640   19.9990 C.2   203  INH203      0.2105
      3  C2        21.6800    3.8920   21.3880 C.3   203  INH203      0.0122
      4  N1        22.0460    2.0390   19.8830 N.am  203  INH203     -0.3040
      5  C3        22.3640    1.3790   18.6270 C.3   203  INH203      0.1016
      6  C4        23.7410    0.7170   18.6880 C.3   203  INH203     -0.0197
      7  C5        24.0060   -0.0890   17.4180 C.3   203  INH203     -0.0605
      8  C6        24.8440    1.7510   18.9380 C.3   203  INH203     -0.0605
      9  C7        21.2890    0.3830   18.2760 C.2   203  INH203      0.2338
     10  O2        21.2460   -0.7000   18.8380 O.2   203  INH203     -0.2738
     11  N2        20.4190    0.8130   17.3670 N.am  203  INH203     -0.3105
     12  C8        19.1950    0.1150   16.9830 C.3   203  INH203      0.0295
     13  C9        17.9180    0.8490   17.4210 C.3   203  INH203     -0.0091
     14  C10       18.0050    1.3720   18.8350 C.ar  203  INH203     -0.0456
     15  C11       17.7930    0.5270   19.9120 C.ar  203  INH203     -0.0585
     16  C12       17.8820    1.0220   21.2130 C.ar  203  INH203     -0.0615
     17  C13       18.1760    2.3660   21.4320 C.ar  203  INH203     -0.0617
     18  C14       18.3760    3.2100   20.3510 C.ar  203  INH203     -0.0615
     19  C15       18.2880    2.7120   19.0560 C.ar  203  INH203     -0.0585
     20  C16       19.0840    0.0230   15.4800 C.3   203  INH203     -0.0063
     21  C17       20.3240   -0.4710   14.7690 C.3   203  INH203      0.0755
     22  O3        20.1560   -0.1430   13.3740 O.3   203  INH203     -0.3899
     23  C18       20.5530   -1.9740   14.9720 C.3   203  INH203      0.0531
     24  C19       21.8940   -2.3610   14.3460 C.3   203  INH203     -0.0068
     25  C20       22.1140   -3.8540   14.4610 C.ar  203  INH203     -0.0455
     26  C21       21.9940   -4.6770   13.3350 C.ar  203  INH203     -0.0585
     27  C22       22.1850   -6.0530   13.4490 C.ar  203  INH203     -0.0615
     28  C23       22.4970   -6.6080   14.6880 C.ar  203  INH203     -0.0617
     29  C24       22.6100   -5.7840   15.8060 C.ar  203  INH203     -0.0615
     30  C25       22.4180   -4.4100   15.6990 C.ar  203  INH203     -0.0585
     31  N3        19.4970   -2.8280   14.4180 N.am  203  INH203     -0.3066
     32  C26       18.8020   -3.7360   15.1240 C.2   203  INH203      0.2559
     33  O4        18.8420   -3.8510   16.3450 O.2   203  INH203     -0.2717
     34  C27       17.9480   -4.7220   14.3540 C.3   203  INH203      0.1958
     35  C28       18.4220   -6.1510   14.6110 C.3   203  INH203      0.0688
     36  O5        18.0250   -4.5340   12.9350 O.3   203  INH203     -0.4356
     37  C29       18.3380   -5.8110   12.3450 C.2   203  INH203      0.4081
     38  O6        18.3490   -5.9640   11.1580 O.2   203  INH203     -0.2259
     39  N4        18.5660   -6.7030   13.2790 N.am  203  INH203     -0.2333
     40  C30       18.9390   -8.0430   13.0270 C.ar  203  INH203      0.0402
     41  C31       18.4250   -8.7490   11.9420 C.ar  203  INH203     -0.0401
     42  C32       18.8120  -10.0690   11.7190 C.ar  203  INH203     -0.0593
     43  C33       19.7060  -10.7120   12.5770 C.ar  203  INH203     -0.0512
     44  C34       19.8410   -8.6960   13.8800 C.ar  203  INH203     -0.0297
     45  C35       20.2320  -10.0250   13.6680 C.ar  203  INH203      0.0189
     46  C36       21.2010  -10.6950   14.6150 C.2   203  INH203      0.1602
     47  O7        21.5190  -10.1410   15.6630 O.2   203  INH203     -0.2924
     48  C37       21.7700  -12.0480   14.2840 C.3   203  INH203     -0.0014
     49  H1        21.6420    3.0530   22.0980 H     203  INH203      0.0322
     50  H2        20.7260    4.4390   21.4160 H     203  INH203      0.0322
     51  H3        22.5000    4.5700   21.6660 H     203  INH203      0.0322
     52  H4        21.9200    1.4750   20.6990 H     203  INH203      0.1494
     53  H5        22.3920    2.1430   17.8360 H     203  INH203      0.0597
     54  H6        23.7410    0.0170   19.5370 H     203  INH203      0.0318
     55  H7        25.0000   -0.5570   17.4810 H     203  INH203      0.0233
     56  H8        23.9700    0.5800   16.5450 H     203  INH203      0.0233
     57  H9        23.2390   -0.8710   17.3130 H     203  INH203      0.0233
     58  H10       24.6200    2.3110   19.8580 H     203  INH203      0.0233
     59  H11       24.8930    2.4470   18.0880 H     203  INH203      0.0233
     60  H12       25.8100    1.2370   19.0480 H     203  INH203      0.0233
     61  H13       20.6180    1.6810   16.9120 H     203  INH203      0.1490
     62  H14       19.2140   -0.8920   17.4250 H     203  INH203      0.0502
     63  H15       17.0700    0.1510   17.3550 H     203  INH203      0.0331
     64  H16       17.7490    1.6970   16.7420 H     203  INH203      0.0331
     65  H17       17.5580   -0.5180   19.7440 H     203  INH203      0.0620
     66  H18       17.7220    0.3590   22.0560 H     203  INH203      0.0618
     67  H19       18.2480    2.7500   22.4430 H     203  INH203      0.0618
     68  H20       18.6010    4.2580   20.5150 H     203  INH203      0.0618
     69  H21       18.4420    3.3760   18.2130 H     203  INH203      0.0620
     70  H22       18.8480    1.0260   15.0950 H     203  INH203      0.0309
     71  H23       18.2590   -0.6650   15.2420 H     203  INH203      0.0309
     72  H24       21.2010    0.0640   15.1630 H     203  INH203      0.0612
     73  H25       19.3990   -0.6040   13.0310 H     203  INH203      0.2099
     74  H26       20.6010   -2.1620   16.0550 H     203  INH203      0.0527
     75  H27       22.7050   -1.8330   14.8690 H     203  INH203      0.0332
     76  H28       21.8950   -2.0750   13.2840 H     203  INH203      0.0332
     77  H29       21.7520   -4.2430   12.3720 H     203  INH203      0.0620
     78  H30       22.0910   -6.6890   12.5760 H     203  INH203      0.0618
     79  H31       22.6510   -7.6770   14.7820 H     203  INH203      0.0618
     80  H32       22.8500   -6.2180   16.7700 H     203  INH203      0.0618
     81  H33       22.5050   -3.7770   16.5750 H     203  INH203      0.0620
     82  H34       19.2790   -2.7280   13.4470 H     203  INH203      0.1492
     83  H35       16.9040   -4.6090   14.6810 H     203  INH203      0.0849
     84  H36       17.6770   -6.7140   15.1920 H     203  INH203      0.0511
     85  H37       19.3840   -6.1560   15.1450 H     203  INH203      0.0511
     86  H38       17.7220   -8.2710   11.2690 H     203  INH203      0.0636
     87  H39       18.4130  -10.6050   10.8660 H     203  INH203      0.0618
     88  H40       19.9900  -11.7420   12.3950 H     203  INH203      0.0625
     89  H41       20.2470   -8.1570   14.7280 H     203  INH203      0.0643
     90  H42       22.4500  -12.3670   15.0880 H     203  INH203      0.0309
     91  H43       22.3250  -11.9910   13.3360 H     203  INH203      0.0309
     92  H44       20.9510  -12.7760   14.1860 H     203  INH203      0.0309
@<TRIPOS>BOND
     1     1     2    2
     2     2     4   am
     3     2     3    1
     4     3    51    1
     5     3    50    1
     6     3    49    1
     7     4    52    1
     8     4     5    1
     9     5    53    1
    10     5     9    1
    11     5     6    1
    12     6    54    1
    13     6     8    1
    14     6     7    1
    15     7    57    1
    16     7    56    1
    17     7    55    1
    18     8    60    1
    19     8    59    1
    20     8    58    1
    21     9    11   am
    22     9    10    2
    23    11    61    1
    24    11    12    1
    25    12    62    1
    26    12    20    1
    27    12    13    1
    28    13    64    1
    29    13    63    1
    30    13    14    1
    31    14    19   ar
    32    14    15   ar
    33    15    65    1
    34    15    16   ar
    35    16    66    1
    36    16    17   ar
    37    17    67    1
    38    17    18   ar
    39    18    68    1
    40    18    19   ar
    41    19    69    1
    42    20    71    1
    43    20    70    1
    44    20    21    1
    45    21    72    1
    46    21    23    1
    47    21    22    1
    48    22    73    1
    49    23    74    1
    50    23    31    1
    51    23    24    1
    52    24    76    1
    53    24    75    1
    54    24    25    1
    55    25    30   ar
    56    25    26   ar
    57    26    77    1
    58    26    27   ar
    59    27    78    1
    60    27    28   ar
    61    28    79    1
    62    28    29   ar
    63    29    80    1
    64    29    30   ar
    65    30    81    1
    66    31    82    1
    67    31    32   am
    68    32    34    1
    69    32    33    2
    70    34    83    1
    71    34    36    1
    72    34    35    1
    73    35    85    1
    74    35    84    1
    75    35    39    1
    76    36    37    1
    77    37    39   am
    78    37    38    2
    79    39    40    1
    80    40    44   ar
    81    40    41   ar
    82    41    86    1
    83    41    42   ar
    84    42    87    1
    85    42    43   ar
    86    43    88    1
    87    43    45   ar
    88    44    45   ar
    89    44    89    1
    90    45    46    1
    91    46    48    1
    92    46    47    2
    93    48    92    1
    94    48    91    1
    95    48    90    1
