@<TRIPOS>MOLECULE
/tmp/ewbell/vina_2q54_2q54_lig/vina/vina1.pdbqt
 52 55 0 0 0
SMALL
GASTEIGER

@<TRIPOS>ATOM
      1  C18       19.9530   -2.1710   15.5270 C.3   203  INH203      0.1170
      2  C17       20.1260   -0.6520   15.3970 C.3   203  INH203      0.1430
      3  C16       19.0040    0.1130   16.0630 C.3   203  INH203      0.0590
      4  C8        19.1950    0.3890   17.5350 C.3   203  INH203      0.0910
      5  N2        20.4770    1.0460   17.7740 N.am  203  INH203     -0.3540
      6  C7        21.4690    0.5420   18.5020 C.2   203  INH203      0.2410
      7  O2        21.4480   -0.5370   19.0730 O.2   203  INH203     -0.2710
      8  H13       20.6210    1.9440   17.3570 H     203  INH203      0.1620
      9  C3        22.6680    1.4460   18.6300 C.3   203  INH203      0.1790
     10  N1        22.5670    2.2460   19.8390 N.am  203  INH203     -0.3480
     11  C1        22.0390    3.4750   19.8590 C.2   203  INH203      0.2140
     12  O1        21.6050    4.0030   18.8510 O.2   203  INH203     -0.2740
     13  C2        22.0280    4.1740   21.1910 C.3   203  INH203      0.1170
     14  H4        22.9080    1.8620   20.6960 H     203  INH203      0.1630
     15  C4        23.9730    0.6490   18.6060 C.3   203  INH203      0.0090
     16  C6        25.1350    1.4700   19.1760 C.3   203  INH203      0.0120
     17  C5        24.2750    0.1550   17.1930 C.3   203  INH203      0.0120
     18  C9        17.9890    1.2580   17.9260 C.3   203  INH203      0.0630
     19  C10       18.0480    1.7200   19.3630 C.ar  203  INH203     -0.0560
     20  C15       18.2500    3.0630   19.6450 C.ar  203  INH203      0.0070
     21  C14       18.3110    3.5060   20.9600 C.ar  203  INH203      0.0010
     22  C13       18.1650    2.6030   22.0020 C.ar  203  INH203      0.0000
     23  C12       17.9510    1.2550   21.7220 C.ar  203  INH203      0.0010
     24  C11       17.8890    0.8150   20.4000 C.ar  203  INH203      0.0070
     25  O3        20.1440   -0.2350   14.0160 O.3   203  INH203     -0.3930
     26  H25       19.7720   -0.9220   13.4750 H     203  INH203      0.2100
     27  N3        21.1500   -2.8780   15.9950 N.am  203  INH203     -0.3510
     28  H34       21.5540   -2.5860   16.8610 H     203  INH203      0.1630
     29  C26       21.7390   -3.8940   15.3410 C.2   203  INH203      0.2490
     30  O4        22.7320   -4.4970   15.7360 O.2   203  INH203     -0.2710
     31  C27       21.1680   -4.2900   13.9950 C.3   203  INH203      0.2430
     32  O5        22.1810   -4.6270   13.0390 O.3   203  INH203     -0.2870
     33  C29       21.8430   -5.9150   12.4870 C.2   203  INH203      0.3680
     34  N4        20.8010   -6.4180   13.1030 N.am  203  INH203     -0.2910
     35  O6        22.4650   -6.3860   11.5780 O.2   203  INH203     -0.2380
     36  C28       20.2940   -5.5350   14.1330 C.3   203  INH203      0.1770
     37  C30       20.2460   -7.6880   12.8230 C.ar  203  INH203      0.0400
     38  C34       18.8680   -7.8160   12.5870 C.ar  203  INH203      0.0440
     39  C35       18.2790   -9.0560   12.3020 C.ar  203  INH203      0.0110
     40  C33       19.0890  -10.1870   12.2500 C.ar  203  INH203      0.0150
     41  C32       20.4600  -10.0700   12.4880 C.ar  203  INH203      0.0030
     42  C31       21.0370   -8.8320   12.7670 C.ar  203  INH203      0.0300
     43  C36       16.7920   -9.1520   12.0460 C.2   203  INH203      0.1550
     44  C37       15.8160   -8.9280   13.1680 C.3   203  INH203      0.0960
     45  O7        16.3780   -9.4240   10.9240 O.2   203  INH203     -0.2930
     46  C19       18.7910   -2.4590   16.4790 C.3   203  INH203      0.0660
     47  C20       17.7310   -3.2810   15.7790 C.ar  203  INH203     -0.0560
     48  C25       16.7490   -2.6400   15.0300 C.ar  203  INH203      0.0070
     49  C24       15.7800   -3.3970   14.3780 C.ar  203  INH203      0.0010
     50  C23       15.7870   -4.7880   14.4630 C.ar  203  INH203      0.0000
     51  C22       16.7760   -5.4300   15.2050 C.ar  203  INH203      0.0010
     52  C21       17.7460   -4.6780   15.8630 C.ar  203  INH203      0.0070
@<TRIPOS>BOND
     1    45    43    2
     2    35    33    2
     3    43    39    1
     4    43    44    1
     5    40    39   ar
     6    40    41   ar
     7    39    38   ar
     8    33    32    1
     9    33    34   am
    10    41    42   ar
    11    38    37   ar
    12    42    37   ar
    13    37    34    1
    14    32    31    1
    15    34    36    1
    16    26    25    1
    17    31    36    1
    18    31    29    1
    19    25     2    1
    20    49    50   ar
    21    49    48   ar
    22    50    51   ar
    23    48    47   ar
    24    51    52   ar
    25    29    30    2
    26    29    27   am
    27     2     1    1
    28     2     3    1
    29     1    27    1
    30     1    46    1
    31    47    52   ar
    32    47    46    1
    33    27    28    1
    34     3     4    1
    35    17    15    1
    36     8     5    1
    37     4     5    1
    38     4    18    1
    39     5     6   am
    40    18    19    1
    41     6     9    1
    42     6     7    2
    43    15     9    1
    44    15    16    1
    45     9    10    1
    46    12    11    2
    47    19    20   ar
    48    19    24   ar
    49    20    21   ar
    50    10    11   am
    51    10    14    1
    52    11    13    1
    53    24    23   ar
    54    21    22   ar
    55    23    22   ar
