@<TRIPOS>MOLECULE
/tmp/ewbell/vina_2q54_2q54_lig/vina/vina3.pdbqt
 52 55 0 0 0
SMALL
GASTEIGER

@<TRIPOS>ATOM
      1  C18       20.1140   -0.6360   16.6060 C.3   203  INH203      0.1170
      2  C17       19.9670   -0.7710   15.0850 C.3   203  INH203      0.1430
      3  C16       21.0370   -1.6520   14.4800 C.3   203  INH203      0.0590
      4  C8        20.9040   -3.1260   14.7760 C.3   203  INH203      0.0910
      5  N2        19.6920   -3.6670   14.1680 N.am  203  INH203     -0.3540
      6  C7        18.7310   -4.3110   14.8230 C.2   203  INH203      0.2410
      7  O2        18.7260   -4.5410   16.0220 O.2   203  INH203     -0.2710
      8  H13       19.5750   -3.5440   13.1820 H     203  INH203      0.1620
      9  C3        17.6090   -4.8090   13.9500 C.3   203  INH203      0.1790
     10  N1        17.8480   -6.1900   13.5650 N.am  203  INH203     -0.3480
     11  C1        18.3020   -6.5440   12.3580 C.2   203  INH203      0.2140
     12  O1        18.5450   -5.7170   11.4970 O.2   203  INH203     -0.2740
     13  C2        18.4770   -8.0180   12.1160 C.3   203  INH203      0.1170
     14  H4        17.6650   -6.9110   14.2330 H     203  INH203      0.1630
     15  C4        16.2530   -4.6590   14.6420 C.3   203  INH203      0.0090
     16  C6        15.2380   -5.6710   14.0990 C.3   203  INH203      0.0120
     17  C5        15.7410   -3.2270   14.5120 C.3   203  INH203      0.0120
     18  C9        22.1920   -3.7510   14.2170 C.3   203  INH203      0.0630
     19  C10       22.0910   -5.2510   14.0660 C.ar  203  INH203     -0.0560
     20  C15       22.0170   -5.8100   12.7990 C.ar  203  INH203      0.0070
     21  C14       21.9200   -7.1880   12.6410 C.ar  203  INH203      0.0010
     22  C13       21.9020   -8.0120   13.7560 C.ar  203  INH203      0.0000
     23  C12       21.9870   -7.4540   15.0290 C.ar  203  INH203      0.0010
     24  C11       22.0850   -6.0710   15.1830 C.ar  203  INH203      0.0070
     25  O3        20.0670    0.5090   14.4260 O.3   203  INH203     -0.3930
     26  H25       20.6870    0.4460   13.7080 H     203  INH203      0.2100
     27  N3        18.8840   -0.8990   17.3590 N.am  203  INH203     -0.3510
     28  H34       18.3880   -1.7450   17.1610 H     203  INH203      0.1630
     29  C26       18.3760   -0.0820   18.2980 C.2   203  INH203      0.2490
     30  O4        17.3540   -0.3060   18.9400 O.2   203  INH203     -0.2710
     31  C27       19.0870    1.2310   18.5480 C.3   203  INH203      0.2430
     32  O5        18.1970    2.3550   18.5440 O.3   203  INH203     -0.2870
     33  C29       18.4320    3.0980   19.7560 C.2   203  INH203      0.3680
     34  N4        19.2860    2.4630   20.5230 N.am  203  INH203     -0.2910
     35  O6        17.9000    4.1510   19.9550 O.2   203  INH203     -0.2380
     36  C28       19.7470    1.2270   19.9260 C.3   203  INH203      0.1770
     37  C30       19.6950    2.9100   21.8010 C.ar  203  INH203      0.0400
     38  C34       18.9830    2.5190   22.9450 C.ar  203  INH203      0.0440
     39  C35       19.3580    2.9360   24.2290 C.ar  203  INH203      0.0110
     40  C33       20.4720    3.7610   24.3670 C.ar  203  INH203      0.0150
     41  C32       21.1840    4.1590   23.2340 C.ar  203  INH203      0.0030
     42  C31       20.8050    3.7350   21.9620 C.ar  203  INH203      0.0300
     43  C36       18.5690    2.4870   25.4380 C.2   203  INH203      0.1550
     44  C37       17.9830    1.1030   25.4870 C.3   203  INH203      0.0960
     45  O7        18.3940    3.2560   26.3790 O.2   203  INH203     -0.2930
     46  C19       21.2120   -1.5870   17.0850 C.3   203  INH203      0.0660
     47  C20       22.3700   -0.8030   17.6640 C.ar  203  INH203     -0.0560
     48  C25       22.3950   -0.5210   19.0260 C.ar  203  INH203      0.0070
     49  C24       23.4640    0.1910   19.5600 C.ar  203  INH203      0.0010
     50  C23       24.5100    0.6210   18.7460 C.ar  203  INH203      0.0000
     51  C22       24.4900    0.3320   17.3830 C.ar  203  INH203      0.0010
     52  C21       23.4200   -0.3780   16.8420 C.ar  203  INH203      0.0070
@<TRIPOS>BOND
     1    12    11    2
     2    13    11    1
     3    11    10   am
     4    21    20   ar
     5    21    22   ar
     6    20    19   ar
     7     8     5    1
     8    10     9    1
     9    10    14    1
    10    26    25    1
    11    22    23   ar
    12     9    15    1
    13     9     6    1
    14    19    18    1
    15    19    24   ar
    16    16    15    1
    17     5     4    1
    18     5     6   am
    19    18     4    1
    20    25     2    1
    21     3     4    1
    22     3     2    1
    23    17    15    1
    24     6     7    2
    25    23    24   ar
    26     2     1    1
    27     1    46    1
    28     1    27    1
    29    52    51   ar
    30    52    47   ar
    31    46    47    1
    32    28    27    1
    33    27    29   am
    34    51    50   ar
    35    47    48   ar
    36    29    31    1
    37    29    30    2
    38    32    31    1
    39    32    33    1
    40    31    36    1
    41    50    49   ar
    42    48    49   ar
    43    33    35    2
    44    33    34   am
    45    36    34    1
    46    34    37    1
    47    37    42   ar
    48    37    38   ar
    49    42    41   ar
    50    38    39   ar
    51    41    40   ar
    52    39    40   ar
    53    39    43    1
    54    43    44    1
    55    43    45    2
