@<TRIPOS>MOLECULE
/tmp/ewbell/vina_2q54_2q54_lig/vina/vina5.pdbqt
 52 55 0 0 0
SMALL
GASTEIGER

@<TRIPOS>ATOM
      1  C18       19.4050   -0.5560   17.3310 C.3   203  INH203      0.1170
      2  C17       19.1500   -0.6920   15.8250 C.3   203  INH203      0.1430
      3  C16       19.7520   -1.9550   15.2510 C.3   203  INH203      0.0590
      4  C8        18.8130   -2.8000   14.4240 C.3   203  INH203      0.0910
      5  N2        19.5040   -3.9760   13.9020 N.am  203  INH203     -0.3540
      6  C7        20.3470   -4.7360   14.5940 C.2   203  INH203      0.2410
      7  O2        20.6630   -4.5580   15.7600 O.2   203  INH203     -0.2710
      8  H13       19.3290   -4.2300   12.9500 H     203  INH203      0.1620
      9  C3        20.9610   -5.8630   13.8040 C.3   203  INH203      0.1790
     10  N1        20.7570   -7.1270   14.4920 N.am  203  INH203     -0.3480
     11  C1        21.6950   -8.0760   14.5690 C.2   203  INH203      0.2140
     12  O1        22.7930   -7.9350   14.0610 O.2   203  INH203     -0.2740
     13  C2        21.3130   -9.3340   15.3010 C.3   203  INH203      0.1170
     14  H4        19.8730   -7.2960   14.9270 H     203  INH203      0.1630
     15  C4        20.4050   -5.9150   12.3810 C.3   203  INH203      0.0090
     16  C6        19.5100   -7.1430   12.1790 C.3   203  INH203      0.0120
     17  C5        21.5390   -5.8750   11.3600 C.3   203  INH203      0.0120
     18  C9        17.6620   -3.1500   15.3800 C.3   203  INH203      0.0630
     19  C10       16.7690   -4.2410   14.8390 C.ar  203  INH203     -0.0560
     20  C15       15.8960   -3.9620   13.7990 C.ar  203  INH203      0.0070
     21  C14       15.0640   -4.9530   13.2910 C.ar  203  INH203      0.0010
     22  C13       15.1080   -6.2330   13.8230 C.ar  203  INH203      0.0000
     23  C12       15.9910   -6.5190   14.8610 C.ar  203  INH203      0.0010
     24  C11       16.8260   -5.5220   15.3670 C.ar  203  INH203      0.0070
     25  O3        19.7230    0.4080   15.0880 O.3   203  INH203     -0.3930
     26  H25       19.1570    0.6260   14.3560 H     203  INH203      0.2100
     27  N3        18.2230   -0.7860   18.1690 N.am  203  INH203     -0.3510
     28  H34       17.6760   -1.6040   17.9880 H     203  INH203      0.1630
     29  C26       17.8240    0.0260   19.1630 C.2   203  INH203      0.2490
     30  O4        16.8430   -0.1700   19.8740 O.2   203  INH203     -0.2710
     31  C27       18.6110    1.3000   19.3900 C.3   203  INH203      0.2430
     32  O5        17.7770    2.4630   19.4610 O.3   203  INH203     -0.2870
     33  C29       18.1220    3.1700   20.6680 C.2   203  INH203      0.3680
     34  N4        18.9900    2.4820   21.3700 N.am  203  INH203     -0.2910
     35  O6        17.6540    4.2430   20.9180 O.2   203  INH203     -0.2380
     36  C28       19.3540    1.2370   20.7240 C.3   203  INH203      0.1770
     37  C30       19.4970    2.8840   22.6270 C.ar  203  INH203      0.0400
     38  C34       20.5000    3.8630   22.7000 C.ar  203  INH203      0.0440
     39  C35       21.0270    4.2920   23.9260 C.ar  203  INH203      0.0110
     40  C33       20.5360    3.7290   25.1010 C.ar  203  INH203      0.0150
     41  C32       19.5420    2.7500   25.0380 C.ar  203  INH203      0.0030
     42  C31       19.0210    2.3330   23.8140 C.ar  203  INH203      0.0300
     43  C36       22.1010    5.3560   23.9640 C.2   203  INH203      0.1550
     44  C37       23.1310    5.3510   25.0590 C.3   203  INH203      0.0960
     45  O7        22.1280    6.2330   23.1060 O.2   203  INH203     -0.2930
     46  C19       20.5090   -1.5340   17.7380 C.3   203  INH203      0.0660
     47  C20       21.8200   -0.7990   17.9170 C.ar  203  INH203     -0.0560
     48  C25       22.1110   -0.2030   19.1400 C.ar  203  INH203      0.0070
     49  C24       23.3210    0.4640   19.3080 C.ar  203  INH203      0.0010
     50  C23       24.2440    0.5360   18.2660 C.ar  203  INH203      0.0000
     51  C22       23.9560   -0.0680   17.0440 C.ar  203  INH203      0.0010
     52  C21       22.7450   -0.7350   16.8690 C.ar  203  INH203      0.0070
@<TRIPOS>BOND
     1    17    15    1
     2    16    15    1
     3    15     9    1
     4     8     5    1
     5    21    20   ar
     6    21    22   ar
     7    20    19   ar
     8     9    10    1
     9     9     6    1
    10    22    23   ar
    11     5     4    1
    12     5     6   am
    13    12    11    2
    14    26    25    1
    15     4     3    1
    16     4    18    1
    17    10    11   am
    18    10    14    1
    19    11    13    1
    20     6     7    2
    21    19    24   ar
    22    19    18    1
    23    23    24   ar
    24    25     2    1
    25     3     2    1
    26     2     1    1
    27    52    51   ar
    28    52    47   ar
    29    51    50   ar
    30     1    46    1
    31     1    27    1
    32    46    47    1
    33    47    48   ar
    34    28    27    1
    35    27    29   am
    36    50    49   ar
    37    48    49   ar
    38    29    31    1
    39    29    30    2
    40    31    32    1
    41    31    36    1
    42    32    33    1
    43    33    35    2
    44    33    34   am
    45    36    34    1
    46    34    37    1
    47    37    38   ar
    48    37    42   ar
    49    38    39   ar
    50    45    43    2
    51    42    41   ar
    52    39    43    1
    53    39    40   ar
    54    43    44    1
    55    41    40   ar
