@<TRIPOS>MOLECULE
/tmp/ewbell/vina_2q54_2q54_lig/vina/vina4.pdbqt
 52 55 0 0 0
SMALL
GASTEIGER

@<TRIPOS>ATOM
      1  C18       18.8850    1.5570   18.8470 C.3   203  INH203      0.1170
      2  C17       18.8310    0.6840   17.5870 C.3   203  INH203      0.1430
      3  C16       20.1930    0.5030   16.9550 C.3   203  INH203      0.0590
      4  C8        20.7770   -0.8850   17.0660 C.3   203  INH203      0.0910
      5  N2        20.0510   -1.8190   16.2100 N.am  203  INH203     -0.3540
      6  C7        19.7840   -3.0850   16.5160 C.2   203  INH203      0.2410
      7  O2        20.1080   -3.6440   17.5520 O.2   203  INH203     -0.2710
      8  H13       19.7300   -1.4810   15.3250 H     203  INH203      0.1620
      9  C3        19.0620   -3.8480   15.4350 C.3   203  INH203      0.1790
     10  N1        19.6000   -5.1930   15.3260 N.am  203  INH203     -0.3480
     11  C1        20.6060   -5.5140   14.5050 C.2   203  INH203      0.2140
     12  O1        21.1380   -4.6840   13.7900 O.2   203  INH203     -0.2740
     13  C2        21.0280   -6.9580   14.5000 C.3   203  INH203      0.1170
     14  H4        19.2000   -5.9150   15.8910 H     203  INH203      0.1630
     15  C4        17.5540   -3.8770   15.6850 C.3   203  INH203      0.0090
     16  C6        16.9620   -5.2510   15.3500 C.3   203  INH203      0.0120
     17  C5        16.8590   -2.7630   14.9060 C.3   203  INH203      0.0120
     18  C9        22.2510   -0.7180   16.6650 C.3   203  INH203      0.0630
     19  C10       23.1070   -0.2030   17.7980 C.ar  203  INH203     -0.0560
     20  C15       22.6790   -0.3600   19.1080 C.ar  203  INH203      0.0070
     21  C14       23.4520    0.1120   20.1620 C.ar  203  INH203      0.0010
     22  C13       24.6610    0.7400   19.9080 C.ar  203  INH203      0.0000
     23  C12       25.0980    0.8900   18.5940 C.ar  203  INH203      0.0010
     24  C11       24.3200    0.4140   17.5380 C.ar  203  INH203      0.0070
     25  O3        17.9830    1.2640   16.5740 O.3   203  INH203     -0.3930
     26  H25       18.2380    0.9330   15.7210 H     203  INH203      0.2100
     27  N3        18.9810    2.9970   18.5830 N.am  203  INH203     -0.3510
     28  H34       18.2360    3.4270   18.0740 H     203  INH203      0.1630
     29  C26       20.0010    3.7770   18.9790 C.2   203  INH203      0.2490
     30  O4        20.0790    4.9850   18.7700 O.2   203  INH203     -0.2710
     31  C27       21.1630    3.1120   19.6870 C.3   203  INH203      0.2430
     32  O5        22.4300    3.4310   19.0980 O.3   203  INH203     -0.2870
     33  C29       23.2950    3.8920   20.1540 C.2   203  INH203      0.3680
     34  N4        22.6310    3.9860   21.2810 N.am  203  INH203     -0.2910
     35  O6        24.4530    4.1200   19.9560 O.2   203  INH203     -0.2380
     36  C28       21.2450    3.5870   21.1360 C.3   203  INH203      0.1770
     37  C30       23.1850    4.4490   22.4960 C.ar  203  INH203      0.0400
     38  C34       23.9600    5.6190   22.5160 C.ar  203  INH203      0.0440
     39  C35       24.5230    6.1140   23.7000 C.ar  203  INH203      0.0110
     40  C33       24.3020    5.4210   24.8880 C.ar  203  INH203      0.0150
     41  C32       23.5360    4.2540   24.8770 C.ar  203  INH203      0.0030
     42  C31       22.9760    3.7730   23.6950 C.ar  203  INH203      0.0300
     43  C36       25.3460    7.3820   23.6820 C.2   203  INH203      0.1550
     44  C37       25.1420    8.4000   22.5940 C.3   203  INH203      0.0960
     45  O7        26.1920    7.5790   24.5490 O.2   203  INH203     -0.2930
     46  C19       17.6410    1.2820   19.6950 C.3   203  INH203      0.0660
     47  C20       17.8020    1.8870   21.0720 C.ar  203  INH203     -0.0560
     48  C25       18.4080    1.1460   22.0820 C.ar  203  INH203      0.0070
     49  C24       18.5650    1.7060   23.3450 C.ar  203  INH203      0.0010
     50  C23       18.1270    3.0020   23.6090 C.ar  203  INH203      0.0000
     51  C22       17.5270    3.7490   22.5960 C.ar  203  INH203      0.0010
     52  C21       17.3640    3.1910   21.3290 C.ar  203  INH203      0.0070
@<TRIPOS>BOND
     1    12    11    2
     2    13    11    1
     3    11    10   am
     4    17    15    1
     5     8     5    1
     6    10     9    1
     7    10    14    1
     8    16    15    1
     9     9    15    1
    10     9     6    1
    11    26    25    1
    12     5     6   am
    13     5     4    1
    14     6     7    2
    15    25     2    1
    16    18     4    1
    17    18    19    1
    18     3     4    1
    19     3     2    1
    20    24    19   ar
    21    24    23   ar
    22     2     1    1
    23    19    20   ar
    24    28    27    1
    25    27     1    1
    26    27    29   am
    27    23    22   ar
    28    30    29    2
    29     1    46    1
    30    29    31    1
    31    32    31    1
    32    32    33    1
    33    20    21   ar
    34    31    36    1
    35    46    47    1
    36    22    21   ar
    37    35    33    2
    38    33    34   am
    39    47    52   ar
    40    47    48   ar
    41    36    34    1
    42    34    37    1
    43    52    51   ar
    44    48    49   ar
    45    37    38   ar
    46    37    42   ar
    47    38    39   ar
    48    44    43    1
    49    51    50   ar
    50    49    50   ar
    51    43    39    1
    52    43    45    2
    53    42    41   ar
    54    39    40   ar
    55    41    40   ar
