@<TRIPOS>MOLECULE
/tmp/ewbell/vina_2q54_2q54_lig/vina/vina2.pdbqt
 52 55 0 0 0
SMALL
GASTEIGER

@<TRIPOS>ATOM
      1  C18       20.3120   -0.6640   16.6540 C.3   203  INH203      0.1170
      2  C17       20.0160   -0.8130   15.1560 C.3   203  INH203      0.1430
      3  C16       21.0380   -1.6770   14.4510 C.3   203  INH203      0.0590
      4  C8        20.9120   -3.1600   14.7000 C.3   203  INH203      0.0910
      5  N2        19.6730   -3.6760   14.1240 N.am  203  INH203     -0.3540
      6  C7        18.7140   -4.2950   14.8060 C.2   203  INH203      0.2410
      7  O2        18.7350   -4.5210   16.0060 O.2   203  INH203     -0.2710
      8  H13       19.5340   -3.5530   13.1410 H     203  INH203      0.1620
      9  C3        17.5590   -4.7710   13.9630 C.3   203  INH203      0.1790
     10  N1        17.7740   -6.1480   13.5500 N.am  203  INH203     -0.3480
     11  C1        18.3110   -6.4820   12.3720 C.2   203  INH203      0.2140
     12  O1        18.6570   -5.6390   11.5630 O.2   203  INH203     -0.2740
     13  C2        18.4450   -7.9540   12.0930 C.3   203  INH203      0.1170
     14  H4        17.5070   -6.8810   14.1750 H     203  INH203      0.1630
     15  C4        16.2290   -4.6200   14.7010 C.3   203  INH203      0.0090
     16  C6        15.3060   -5.8140   14.4330 C.3   203  INH203      0.0120
     17  C5        15.5570   -3.2990   14.3320 C.3   203  INH203      0.0120
     18  C9        22.1720   -3.7680   14.0650 C.3   203  INH203      0.0630
     19  C10       22.1100   -5.2750   13.9770 C.ar  203  INH203     -0.0560
     20  C15       22.0600   -5.8900   12.7340 C.ar  203  INH203      0.0070
     21  C14       21.9990   -7.2740   12.6350 C.ar  203  INH203      0.0010
     22  C13       21.9900   -8.0510   13.7840 C.ar  203  INH203      0.0000
     23  C12       22.0500   -7.4370   15.0320 C.ar  203  INH203      0.0010
     24  C11       22.1130   -6.0470   15.1280 C.ar  203  INH203      0.0070
     25  O3        20.0230    0.4640   14.4840 O.3   203  INH203     -0.3930
     26  H25       19.2790    0.9780   14.7760 H     203  INH203      0.2100
     27  N3        19.1690   -0.9540   17.5280 N.am  203  INH203     -0.3510
     28  H34       18.7320   -1.8490   17.4420 H     203  INH203      0.1630
     29  C26       18.6700   -0.0980   18.4370 C.2   203  INH203      0.2490
     30  O4        17.7230   -0.3420   19.1790 O.2   203  INH203     -0.2710
     31  C27       19.2870    1.2830   18.5160 C.3   203  INH203      0.2430
     32  O5        18.3080    2.3300   18.5060 O.3   203  INH203     -0.2870
     33  C29       18.5810    3.1900   19.6300 C.2   203  INH203      0.3680
     34  N4        19.5470    2.6910   20.3630 N.am  203  INH203     -0.2910
     35  O6        17.9810    4.2120   19.7930 O.2   203  INH203     -0.2380
     36  C28       20.0580    1.4470   19.8250 C.3   203  INH203      0.1770
     37  C30       20.0230    3.2750   21.5590 C.ar  203  INH203      0.0400
     38  C34       21.3430    3.7470   21.6350 C.ar  203  INH203      0.0440
     39  C35       21.8520    4.3370   22.8000 C.ar  203  INH203      0.0110
     40  C33       21.0200    4.4570   23.9100 C.ar  203  INH203      0.0150
     41  C32       19.7070    3.9860   23.8450 C.ar  203  INH203      0.0030
     42  C31       19.2080    3.4050   22.6810 C.ar  203  INH203      0.0300
     43  C36       23.2770    4.8400   22.8390 C.2   203  INH203      0.1550
     44  C37       24.0470    4.8310   24.1310 C.3   203  INH203      0.0960
     45  O7        23.8070    5.2680   21.8180 O.2   203  INH203     -0.2930
     46  C19       21.4760   -1.5850   17.0240 C.3   203  INH203      0.0660
     47  C20       22.5950   -0.7860   17.6560 C.ar  203  INH203     -0.0560
     48  C25       23.6320   -0.3100   16.8600 C.ar  203  INH203      0.0070
     49  C24       24.6560    0.4330   17.4390 C.ar  203  INH203      0.0010
     50  C23       24.6510    0.7090   18.8050 C.ar  203  INH203      0.0000
     51  C22       23.6080    0.2390   19.6010 C.ar  203  INH203      0.0010
     52  C21       22.5810   -0.5080   19.0270 C.ar  203  INH203      0.0070
@<TRIPOS>BOND
     1    12    11    2
     2    13    11    1
     3    11    10   am
     4    21    20   ar
     5    21    22   ar
     6    20    19   ar
     7     8     5    1
     8    10     9    1
     9    10    14    1
    10    22    23   ar
    11     9    15    1
    12     9     6    1
    13    19    18    1
    14    19    24   ar
    15    18     4    1
    16     5     4    1
    17     5     6   am
    18    17    15    1
    19    16    15    1
    20     3     4    1
    21     3     2    1
    22    25    26    1
    23    25     2    1
    24     6     7    2
    25    23    24   ar
    26     2     1    1
    27     1    46    1
    28     1    27    1
    29    48    49   ar
    30    48    47   ar
    31    46    47    1
    32    49    50   ar
    33    28    27    1
    34    27    29   am
    35    47    52   ar
    36    29    31    1
    37    29    30    2
    38    32    31    1
    39    32    33    1
    40    31    36    1
    41    50    51   ar
    42    52    51   ar
    43    33    35    2
    44    33    34   am
    45    36    34    1
    46    34    37    1
    47    37    38   ar
    48    37    42   ar
    49    38    39   ar
    50    45    43    2
    51    42    41   ar
    52    39    43    1
    53    39    40   ar
    54    43    44    1
    55    41    40   ar
