@<TRIPOS>MOLECULE
./ligand/2ihj_lig.pdb
 70 72 0 0 0
SMALL
GASTEIGER

@<TRIPOS>ATOM
      1  C1        10.7400    4.2170    1.3480 C.3   383  INH383      0.0806
      2  C2        11.5540    3.5610    2.4760 C.3   383  INH383      0.1126
      3  C3        10.1960    1.5070    2.3380 C.3   383  INH383      0.3144
      4  O1         9.5050    2.1150    1.2340 O.3   383  INH383     -0.3295
      5  C4        10.2320    3.0770    0.4460 C.3   383  INH383      0.1116
      6  C5        10.6380    2.6260    3.2800 C.3   383  INH383      0.1934
      7  O2        12.2400    4.4780    3.3420 O.3   383  INH383     -0.3868
      8  N1        11.6580    5.0140    0.5380 N.am  383  INH383     -0.3075
      9  C6         9.3440    3.4930   -0.7350 C.3   383  INH383      0.1111
     10  C7         8.8510    2.2690   -1.5300 C.3   383  INH383      0.1065
     11  C8         7.8930    2.6110   -2.6750 C.3   383  INH383      0.0727
     12  O3         8.5920    3.3230   -3.7050 O.3   383  INH383     -0.3924
     13  O4         9.9650    1.5410   -2.0680 O.3   383  INH383     -0.3869
     14  O5         8.2280    4.2380   -0.2390 O.3   383  INH383     -0.3865
     15  C9         9.2320    0.5710    3.0500 C.2   383  INH383      0.4179
     16  O6         9.5930   -0.0380    4.0720 O.co2 383  INH383     -0.2401
     17  O7         8.0730    0.4270    2.6050 O.co2 383  INH383     -0.2401
     18  O8        11.4190    0.8330    1.9460 O.3   383  INH383     -0.2816
     19  O9        12.8220    0.4600   -0.1220 O.2   383  INH383     -0.5172
     20  N2        11.7120   -5.4310    1.2650 N.ar  383  INH383     -0.2700
     21  C10       11.7390   -6.7970    0.8930 C.ar  383  INH383      0.3522
     22  N3        11.5090   -7.1500   -0.4000 N.ar  383  INH383     -0.1783
     23  C11       11.2430   -6.2150   -1.3520 C.ar  383  INH383      0.1230
     24  C12       11.2170   -4.8640   -1.0010 C.ar  383  INH383     -0.0056
     25  C13       11.4470   -4.5020    0.3230 C.ar  383  INH383      0.0152
     26  P1        11.6790   -0.1430    0.6630 P.3   383  INH383      0.2156
     27  N4        11.0220   -6.5810   -2.6410 N.pl3 383  INH383     -0.3430
     28  O10       11.9760   -7.6670    1.7700 O.2   383  INH383     -0.2444
     29  O11       10.3510   -0.4210    0.0390 O.3   383  INH383     -0.4373
     30  C14       11.3780    6.2280    0.0410 C.2   383  INH383      0.2103
     31  O12       10.3130    6.8050    0.2190 O.2   383  INH383     -0.2761
     32  C15       12.4740    6.8520   -0.7750 C.3   383  INH383      0.0122
     33  F1         9.5330    3.2840    3.7900 F     383  INH383     -0.2364
     34  C16       13.7930   -3.5750    2.8440 C.3   383  INH383      0.1135
     35  C17       13.4320   -5.0350    3.0230 C.3   383  INH383      0.1286
     36  C18       11.9500   -5.0590    2.6820 C.3   383  INH383      0.1680
     37  O13       11.4630   -3.7410    2.9930 O.3   383  INH383     -0.3456
     38  C19       12.5460   -2.8870    3.3790 C.3   383  INH383      0.1133
     39  O14       12.2660   -1.4490    1.4100 O.3   383  INH383     -0.3247
     40  C20       12.3600   -1.4680    2.8400 C.3   383  INH383      0.0836
     41  O15       14.9810   -3.2050    3.5510 O.3   383  INH383     -0.3864
     42  O16       13.5800   -5.4130    4.3970 O.3   383  INH383     -0.3847
     43  H1         9.9140    4.8260    1.7440 H     383  INH383      0.0551
     44  H2        12.3270    2.9430    1.9960 H     383  INH383      0.0644
     45  H3        11.1210    2.5830    0.0260 H     383  INH383      0.0643
     46  H4        11.2070    2.1980    4.1180 H     383  INH383      0.0739
     47  H5        12.7990    5.0440    2.8230 H     383  INH383      0.2100
     48  H6        12.5590    4.6270    0.3400 H     383  INH383      0.1491
     49  H7         9.9310    4.1340   -1.4090 H     383  INH383      0.0646
     50  H8         8.3140    1.6150   -0.8270 H     383  INH383      0.0643
     51  H9         7.0750    3.2380   -2.2900 H     383  INH383      0.0584
     52  H10        7.4780    1.6820   -3.0920 H     383  INH383      0.0584
     53  H11        9.2980    2.7820   -4.0390 H     383  INH383      0.2095
     54  H12       10.5680    1.3230   -1.3670 H     383  INH383      0.2100
     55  H13        8.5420    4.9900    0.2490 H     383  INH383      0.2100
     56  H14       11.0550   -7.5760   -2.9070 H     383  INH383      0.1437
     57  H15       11.0190   -4.1030   -1.7540 H     383  INH383      0.0666
     58  H16       11.4130   -3.4500    0.6040 H     383  INH383      0.0812
     59  H17       10.8260   -5.8790   -3.3380 H     383  INH383      0.1437
     60  H18       12.1470    7.8390   -1.1340 H     383  INH383      0.0322
     61  H19       12.7040    6.2060   -1.6350 H     383  INH383      0.0322
     62  H20       13.3740    6.9680   -0.1530 H     383  INH383      0.0322
     63  H21       13.9370   -3.3400    1.7790 H     383  INH383      0.0647
     64  H22       14.0250   -5.6900    2.3680 H     383  INH383      0.0665
     65  H23       11.4390   -5.7960    3.3190 H     383  INH383      0.0867
     66  H24       12.6020   -2.8310    4.4760 H     383  INH383      0.0647
     67  H25       13.2190   -0.8550    3.1480 H     383  INH383      0.0591
     68  H26       11.4370   -1.0450    3.2630 H     383  INH383      0.0591
     69  H27       14.8900   -3.4420    4.4670 H     383  INH383      0.2100
     70  H28       14.5010   -5.4040    4.6290 H     383  INH383      0.2101
@<TRIPOS>BOND
     1     1     5    1
     2     1    43    1
     3     1     8    1
     4     1     2    1
     5     2    44    1
     6     2     7    1
     7     2     6    1
     8     3    18    1
     9     3    15    1
    10     3     6    1
    11     3     4    1
    12     4     5    1
    13     5    45    1
    14     5     9    1
    15     6    46    1
    16     6    33    1
    17     7    47    1
    18     8    48    1
    19     8    30   am
    20     9    49    1
    21     9    14    1
    22     9    10    1
    23    10    50    1
    24    10    13    1
    25    10    11    1
    26    11    52    1
    27    11    51    1
    28    11    12    1
    29    12    53    1
    30    13    54    1
    31    14    55    1
    32    15    17   ar
    33    15    16   ar
    34    18    26    1
    35    19    26    2
    36    20    36    1
    37    20    25   ar
    38    20    21   ar
    39    21    28    2
    40    21    22   ar
    41    22    23   ar
    42    23    27    1
    43    23    24   ar
    44    24    57    1
    45    24    25   ar
    46    25    58    1
    47    26    39    1
    48    26    29    1
    49    27    59    1
    50    27    56    1
    51    30    32    1
    52    30    31    2
    53    32    62    1
    54    32    61    1
    55    32    60    1
    56    34    38    1
    57    34    63    1
    58    34    41    1
    59    34    35    1
    60    35    64    1
    61    35    42    1
    62    35    36    1
    63    36    65    1
    64    36    37    1
    65    37    38    1
    66    38    40    1
    67    38    66    1
    68    39    40    1
    69    40    68    1
    70    40    67    1
    71    41    69    1
    72    42    70    1
