@<TRIPOS>MOLECULE
/tmp/ewbell/vina_2ihj_2ihj_lig/vina/vina1.pdbqt
 54 56 0 0 0
SMALL
GASTEIGER

@<TRIPOS>ATOM
      1  C1        10.8970    4.2680    1.0900 C.3   383  INH383      0.1470
      2  C2        11.6850    3.5930    2.2260 C.3   383  INH383      0.1830
      3  C3        10.3500    1.5310    2.0030 C.3   383  INH383      0.2960
      4  O1         9.6850    2.1590    0.8940 O.3   383  INH383     -0.3340
      5  C4        10.4250    3.1450    0.1490 C.3   383  INH383      0.1820
      6  C5        10.7550    2.6320    2.9820 C.3   383  INH383      0.2750
      7  F1         9.6300    3.2690    3.4750 F     383  INH383     -0.2400
      8  O8        11.5890    0.8770    1.6300 O.3   383  INH383     -0.2450
      9  P1        11.8570   -0.1840    0.4180 P.3   383  INH383      0.3960
     10  O9        12.9630    0.3960   -0.4350 O.2   383  INH383     -0.6310
     11  O14       12.5040   -1.4100    1.2460 O.3   383  INH383     -0.2940
     12  C20       12.3650   -1.4570    2.6720 C.3   383  INH383      0.2150
     13  C19       12.4930   -2.8840    3.2090 C.3   383  INH383      0.1800
     14  C16       13.7410   -3.6020    2.7140 C.3   383  INH383      0.1820
     15  C17       13.3360   -5.0530    2.8720 C.3   383  INH383      0.1980
     16  C18       11.8670   -5.0360    2.4770 C.3   383  INH383      0.2630
     17  O13       11.4030   -3.7070    2.7780 O.3   383  INH383     -0.3530
     18  O15       14.9120   -3.2660    3.4670 O.3   383  INH383     -0.3900
     19  H27       15.0730   -2.3320    3.3990 H     383  INH383      0.2100
     20  O16       13.4230   -5.4410    4.2480 O.3   383  INH383     -0.3880
     21  H28       13.3620   -4.6690    4.7980 H     383  INH383      0.2100
     22  N2        11.6720   -5.3940    1.0500 N.am  383  INH383     -0.2800
     23  C13       11.3920   -4.4610    0.1160 C.2   383  INH383      0.1020
     24  C12       11.2030   -4.8110   -1.2170 C.2   383  INH383      0.0650
     25  C11       11.2860   -6.1550   -1.5880 C.3   383  INH383      0.1030
     26  N3        11.5660   -7.0940   -0.6450 N.am  383  INH383     -0.2950
     27  C10       11.7560   -6.7520    0.6580 C.2   383  INH383      0.3300
     28  H3        11.6350   -8.0730   -0.9190 H     383  INH383      0.1720
     29  O10       12.0070   -7.6270    1.5270 O.2   383  INH383     -0.2460
     30  N4        11.1060   -6.5080   -2.8870 N.3   383  INH383     -0.3850
     31  H17       11.4490   -5.9120   -3.6240 H     383  INH383      0.1570
     32  H14       10.6170   -7.3850   -3.1180 H     383  INH383      0.1570
     33  O11       10.5280   -0.5510   -0.1540 O.3   383  INH383     -0.3070
     34  H         10.4910   -1.5090   -0.3000 H     383  INH383      0.2220
     35  C9         9.3740    0.5710    2.6660 C.2   383  INH383      0.2090
     36  O7         9.5820    0.1980    3.8400 O.2   383  INH383     -0.6460
     37  O6         8.3840    0.1550    2.0400 O.3   383  INH383     -0.7720
     38  H          7.5290    0.2200    2.4180 H     383  INH383      0.1670
     39  O2        12.3380    4.4950    3.1320 O.3   383  INH383     -0.3900
     40  H5        12.9870    5.0020    2.6580 H     383  INH383      0.2100
     41  C6         9.5670    3.5810   -1.0470 C.3   383  INH383      0.1800
     42  O5         8.5890    4.5240   -0.6000 O.3   383  INH383     -0.3900
     43  H13        8.8530    4.8770    0.2410 H     383  INH383      0.2100
     44  C7         8.8740    2.3770   -1.7140 C.3   383  INH383      0.1730
     45  O4         9.8280    1.3390   -1.9860 O.3   383  INH383     -0.3910
     46  H12       10.4620    1.6510   -2.6210 H     383  INH383      0.2100
     47  C8         8.1400    2.7190   -3.0140 C.3   383  INH383      0.1980
     48  O3         6.7340    2.8540   -2.7640 O.3   383  INH383     -0.3980
     49  H11        6.5710    2.7760   -1.8300 H     383  INH383      0.2090
     50  N1        11.8310    5.0910    0.3250 N.am  383  INH383     -0.3520
     51  H6        12.7360    4.7100    0.1310 H     383  INH383      0.1630
     52  C14       11.5610    6.3210   -0.1360 C.2   383  INH383      0.2140
     53  C15       12.6740    6.9730   -0.9050 C.3   383  INH383      0.1170
     54  O12       10.4910    6.8910    0.0380 O.2   383  INH383     -0.2740
@<TRIPOS>BOND
     1    31    30    1
     2    32    30    1
     3    47    48    1
     4    47    44    1
     5    30    25    1
     6    48    49    1
     7    46    45    1
     8    45    44    1
     9    44    41    1
    10    25    24    1
    11    25    26    1
    12    24    23    2
    13    41    42    1
    14    41     5    1
    15    28    26    1
    16    53    52    1
    17    26    27   am
    18    42    43    1
    19    10     9    2
    20    34    33    1
    21    33     9    1
    22    52    54    2
    23    52    50   am
    24    23    22    1
    25    51    50    1
    26     5     4    1
    27     5     1    1
    28    50     1    1
    29     9    11    1
    30     9     8    1
    31    27    22   am
    32    27    29    2
    33     4     3    1
    34    22    16    1
    35     1     2    1
    36    11    12    1
    37     8     3    1
    38     3    35    1
    39     3     6    1
    40    37    38    1
    41    37    35    1
    42     2     6    1
    43     2    39    1
    44    16    17    1
    45    16    15    1
    46    40    39    1
    47    35    36    2
    48    12    13    1
    49    14    15    1
    50    14    13    1
    51    14    18    1
    52    17    13    1
    53    15    20    1
    54     6     7    1
    55    19    18    1
    56    20    21    1
