@<TRIPOS>MOLECULE
/tmp/ewbell/vina_2ihj_2ihj_lig/vina/vina4.pdbqt
 54 56 0 0 0
SMALL
GASTEIGER

@<TRIPOS>ATOM
      1  C1         9.4370    2.8770   -3.3870 C.3   383  INH383      0.1470
      2  C2         9.0270    1.6260   -2.5910 C.3   383  INH383      0.1830
      3  C3        11.0890    1.7400   -1.2430 C.3   383  INH383      0.2960
      4  O1        11.4070    2.9510   -1.9490 O.3   383  INH383     -0.3340
      5  C4        10.3070    3.7350   -2.4500 C.3   383  INH383      0.1820
      6  C5        10.2900    0.8480   -2.1920 C.3   383  INH383      0.2750
      7  F1        11.0630    0.5030   -3.2860 F     383  INH383     -0.2400
      8  O8        10.2220    1.9550   -0.1000 O.3   383  INH383     -0.2450
      9  P1        10.4180    2.9900    1.1480 P.3   383  INH383      0.3960
     10  O9         9.4790    4.1510    0.9060 O.2   383  INH383     -0.6310
     11  O14        9.7790    2.1180    2.3470 O.3   383  INH383     -0.2940
     12  C20        9.6580    0.6970    2.2080 C.3   383  INH383      0.2150
     13  C19       10.4030   -0.0490    3.3170 C.3   383  INH383      0.1800
     14  C16       11.9000   -0.1590    3.0660 C.3   383  INH383      0.1820
     15  C17       12.2590   -1.3640    3.9110 C.3   383  INH383      0.1980
     16  C18       11.0580   -2.2770    3.7200 C.3   383  INH383      0.2630
     17  O13        9.9520   -1.4030    3.4330 O.3   383  INH383     -0.3530
     18  O15       12.6170    1.0210    3.4460 O.3   383  INH383     -0.3900
     19  H27       12.8220    1.5290    2.6700 H     383  INH383      0.2100
     20  O16       12.3220   -0.9940    5.2930 O.3   383  INH383     -0.3880
     21  H28       11.5290   -0.5270    5.5310 H     383  INH383      0.2100
     22  N2        11.2850   -3.2750    2.6440 N.am  383  INH383     -0.2800
     23  C13       11.0850   -2.9740    1.3440 C.2   383  INH383      0.1020
     24  C12       11.2940   -3.9200    0.3460 C.2   383  INH383      0.0650
     25  C11       11.6980   -5.2090    0.7020 C.3   383  INH383      0.1030
     26  N3        11.8970   -5.5100    2.0130 N.am  383  INH383     -0.2950
     27  C10       11.6990   -4.5840    2.9890 C.2   383  INH383      0.3300
     28  H3        12.2010   -6.4490    2.2690 H     383  INH383      0.1720
     29  O10       11.8770   -4.8720    4.2000 O.2   383  INH383     -0.2460
     30  N4        11.9060   -6.1400   -0.2640 N.3   383  INH383     -0.3850
     31  H17       11.9100   -5.8690   -1.2350 H     383  INH383      0.1570
     32  H14       12.0610   -7.1250   -0.0040 H     383  INH383      0.1570
     33  O11       11.8860    3.1870    1.3360 O.3   383  INH383     -0.3070
     34  H         12.1890    3.9200    0.7780 H     383  INH383      0.2220
     35  C9        12.3900    1.0580   -0.8510 C.2   383  INH383      0.2090
     36  O7        13.4540    1.7150   -0.8550 O.2   383  INH383     -0.6460
     37  O6        12.3960   -0.1450   -0.5400 O.3   383  INH383     -0.7720
     38  H         11.5860   -0.5970   -0.4010 H     383  INH383      0.1670
     39  O2         8.0830    0.7690   -3.2510 O.3   383  INH383     -0.3900
     40  H5         7.7210    1.2190   -4.0050 H     383  INH383      0.2100
     41  C6        10.8770    5.0270   -3.0500 C.3   383  INH383      0.1800
     42  O5        11.2550    4.7830   -4.4080 O.3   383  INH383     -0.3900
     43  H13       10.5260    4.9890   -4.9810 H     383  INH383      0.2100
     44  C7        12.0910    5.5350   -2.2480 C.3   383  INH383      0.1730
     45  O4        11.8560    5.3870   -0.8390 O.3   383  INH383     -0.3910
     46  H12       11.8650    4.4640   -0.6130 H     383  INH383      0.2100
     47  C8        12.4610    6.9940   -2.5300 C.3   383  INH383      0.1980
     48  O3        12.2100    7.3070   -3.9070 O.3   383  INH383     -0.3980
     49  H11       11.2790    7.2340   -4.0830 H     383  INH383      0.2090
     50  N1         8.2270    3.6500   -3.6590 N.am  383  INH383     -0.3520
     51  H6         7.5990    3.8150   -2.8980 H     383  INH383      0.1630
     52  C14        7.9000    4.1560   -4.8580 C.2   383  INH383      0.2140
     53  C15        6.6100    4.9240   -4.8960 C.3   383  INH383      0.1170
     54  O12        8.5880    4.0210   -5.8620 O.2   383  INH383     -0.2740
@<TRIPOS>BOND
     1    54    52    2
     2    43    42    1
     3    53    52    1
     4    52    50   am
     5    42    41    1
     6    49    48    1
     7    40    39    1
     8    48    47    1
     9    50     1    1
    10    50    51    1
    11     1     2    1
    12     1     5    1
    13     7     6    1
    14    39     2    1
    15    41     5    1
    16    41    44    1
    17     2     6    1
    18    47    44    1
    19     5     4    1
    20    44    45    1
    21     6     3    1
    22     4     3    1
    23     3    35    1
    24     3     8    1
    25    31    30    1
    26    36    35    2
    27    35    37    1
    28    45    46    1
    29    37    38    1
    30    30    32    1
    31    30    25    1
    32     8     9    1
    33    24    25    1
    34    24    23    2
    35    25    26    1
    36    34    33    1
    37    10     9    2
    38     9    33    1
    39     9    11    1
    40    23    22    1
    41    26    28    1
    42    26    27   am
    43    12    11    1
    44    12    13    1
    45    22    27   am
    46    22    16    1
    47    19    18    1
    48    27    29    2
    49    14    13    1
    50    14    18    1
    51    14    15    1
    52    13    17    1
    53    17    16    1
    54    16    15    1
    55    15    20    1
    56    20    21    1
