@<TRIPOS>MOLECULE
/tmp/ewbell/vina_2ihj_2ihj_lig/vina/vina5.pdbqt
 54 56 0 0 0
SMALL
GASTEIGER

@<TRIPOS>ATOM
      1  C1        10.3190    3.7710    0.0990 C.3   383  INH383      0.1470
      2  C2        10.4800    4.1410    1.5830 C.3   383  INH383      0.1830
      3  C3         9.6300    1.9340    2.2830 C.3   383  INH383      0.2960
      4  O1         9.5650    1.5890    0.8900 O.3   383  INH383     -0.3340
      5  C4        10.4900    2.2440    0.0010 C.3   383  INH383      0.1820
      6  C5         9.3850    3.4380    2.3990 C.3   383  INH383      0.2750
      7  F1         8.1140    3.7500    1.9500 F     383  INH383     -0.2400
      8  O8        10.9400    1.7150    2.8660 O.3   383  INH383     -0.2450
      9  P1        11.4990    0.3980    3.6540 P.3   383  INH383      0.3960
     10  O9        10.5360    0.1250    4.7880 O.2   383  INH383     -0.6310
     11  O14       11.2350   -0.7380    2.5370 O.3   383  INH383     -0.2940
     12  C20       10.5280   -1.9330    2.8920 C.3   383  INH383      0.2150
     13  C19       11.4830   -3.0830    3.2180 C.3   383  INH383      0.1800
     14  C16       12.8090   -2.9900    2.4790 C.3   383  INH383      0.1820
     15  C17       13.2660   -4.4340    2.4980 C.3   383  INH383      0.1980
     16  C18       11.9670   -5.2000    2.3010 C.3   383  INH383      0.2630
     17  O13       10.9340   -4.3470    2.8290 O.3   383  INH383     -0.3530
     18  O15       13.7390   -2.1040    3.1110 O.3   383  INH383     -0.3900
     19  H27       14.5500   -2.0920    2.6160 H     383  INH383      0.2100
     20  O16       13.7890   -4.7680    3.7890 O.3   383  INH383     -0.3880
     21  H28       13.8590   -5.7130    3.8660 H     383  INH383      0.2100
     22  N2        11.7390   -5.5500    0.8770 N.am  383  INH383     -0.2800
     23  C13       11.3370   -4.6300   -0.0240 C.2   383  INH383      0.1020
     24  C12       11.1190   -4.9720   -1.3550 C.2   383  INH383      0.0650
     25  C11       11.3020   -6.2970   -1.7570 C.3   383  INH383      0.1030
     26  N3        11.7060   -7.2230   -0.8460 N.am  383  INH383     -0.2950
     27  C10       11.9240   -6.8880    0.4540 C.2   383  INH383      0.3300
     28  H3        11.8480   -8.1880   -1.1440 H     383  INH383      0.1720
     29  O10       12.2900   -7.7520    1.2920 O.2   383  INH383     -0.2460
     30  N4        11.0950   -6.6430   -3.0540 N.3   383  INH383     -0.3850
     31  H17       10.9930   -7.6130   -3.3070 H     383  INH383      0.1570
     32  H14       11.0420   -5.9130   -3.7780 H     383  INH383      0.1570
     33  O11       12.9590    0.6060    3.8890 O.3   383  INH383     -0.3070
     34  H         13.1960    1.5200    3.6670 H     383  INH383      0.2220
     35  C9         8.5430    1.1670    3.0190 C.2   383  INH383      0.2090
     36  O7         8.0040    1.6760    4.0250 O.2   383  INH383     -0.6460
     37  O6         8.2020    0.0370    2.6270 O.3   383  INH383     -0.7720
     38  H          8.2050   -0.1620    1.7110 H     383  INH383      0.1670
     39  O2        10.5030    5.5500    1.8590 O.3   383  INH383     -0.3900
     40  H5         9.6690    5.8110    2.2330 H     383  INH383      0.2100
     41  C6        10.3200    1.6330   -1.3970 C.3   383  INH383      0.1800
     42  O5         9.0910    0.9010   -1.4400 O.3   383  INH383     -0.3900
     43  H13        8.3990    1.4660   -1.7600 H     383  INH383      0.2100
     44  C7        11.4980    0.7070   -1.7560 C.3   383  INH383      0.1730
     45  O4        11.4270    0.3200   -3.1370 O.3   383  INH383     -0.3910
     46  H12       12.2820    0.0210   -3.4260 H     383  INH383      0.2100
     47  C8        11.5840   -0.5580   -0.8980 C.3   383  INH383      0.1980
     48  O3        12.6800   -0.4550    0.0220 O.3   383  INH383     -0.3980
     49  H11       13.2140   -1.2400   -0.0350 H     383  INH383      0.2090
     50  N1        11.4340    4.3650   -0.6340 N.am  383  INH383     -0.3520
     51  H6        12.2900    3.8480   -0.6780 H     383  INH383      0.1630
     52  C14       11.3920    5.5540   -1.2530 C.2   383  INH383      0.2140
     53  C15       12.6600    5.9560   -1.9510 C.3   383  INH383      0.1170
     54  O12       10.4030    6.2760   -1.2700 O.2   383  INH383     -0.2740
@<TRIPOS>BOND
     1    32    30    1
     2    46    45    1
     3    31    30    1
     4    45    44    1
     5    30    25    1
     6    53    52    1
     7    43    42    1
     8    25    24    1
     9    25    26    1
    10    44    41    1
    11    44    47    1
    12    42    41    1
    13    41     5    1
    14    24    23    2
    15    54    52    2
    16    52    50   am
    17    28    26    1
    18    47    48    1
    19    26    27   am
    20    51    50    1
    21    50     1    1
    22    49    48    1
    23    23    22    1
    24     5     1    1
    25     5     4    1
    26     1     2    1
    27    27    22   am
    28    27    29    2
    29    22    16    1
    30     4     3    1
    31     2    39    1
    32     2     6    1
    33    38    37    1
    34    39    40    1
    35     7     6    1
    36     3     6    1
    37     3     8    1
    38     3    35    1
    39    16    15    1
    40    16    17    1
    41    14    15    1
    42    14    18    1
    43    14    13    1
    44    15    20    1
    45    11    12    1
    46    11     9    1
    47    19    18    1
    48    37    35    1
    49    17    13    1
    50     8     9    1
    51    12    13    1
    52    35    36    2
    53     9    33    1
    54     9    10    2
    55    34    33    1
    56    20    21    1
