@<TRIPOS>MOLECULE
/tmp/ewbell/vina_2ihj_2ihj_lig/vina/vina3.pdbqt
 54 56 0 0 0
SMALL
GASTEIGER

@<TRIPOS>ATOM
      1  C1        10.7160    1.8620   -1.6150 C.3   383  INH383      0.1470
      2  C2        11.6470    1.5320   -0.4360 C.3   383  INH383      0.1830
      3  C3         9.9750    2.3420    1.1860 C.3   383  INH383      0.2960
      4  O1         9.0970    2.5660    0.0710 O.3   383  INH383     -0.3340
      5  C4         9.2740    1.7320   -1.0910 C.3   383  INH383      0.1820
      6  C5        11.4080    2.5440    0.6940 C.3   383  INH383      0.2750
      7  F1        11.5880    3.8510    0.2760 F     383  INH383     -0.2400
      8  O8         9.9320    0.9800    1.6840 O.3   383  INH383     -0.2450
      9  P1        10.2120    0.4390    3.1990 P.3   383  INH383      0.3960
     10  O9         8.8780    0.4260    3.9130 O.2   383  INH383     -0.6310
     11  O14       10.5880   -1.1000    2.8900 O.3   383  INH383     -0.2940
     12  C20       11.9620   -1.4830    2.7540 C.3   383  INH383      0.2150
     13  C19       12.2100   -2.9030    3.2670 C.3   383  INH383      0.1800
     14  C16       13.5200   -3.5000    2.7740 C.3   383  INH383      0.1820
     15  C17       13.2420   -4.9830    2.9010 C.3   383  INH383      0.1980
     16  C18       11.7810   -5.0870    2.4920 C.3   383  INH383      0.2630
     17  O13       11.2000   -3.8090    2.8110 O.3   383  INH383     -0.3530
     18  O15       14.6500   -3.0770    3.5440 O.3   383  INH383     -0.3900
     19  H27       15.3500   -2.8130    2.9580 H     383  INH383      0.2100
     20  O16       13.3500   -5.3880    4.2710 O.3   383  INH383     -0.3880
     21  H28       13.7090   -4.6720    4.7830 H     383  INH383      0.2100
     22  N2        11.6300   -5.4340    1.0560 N.am  383  INH383     -0.2800
     23  C13       11.3160   -4.5050    0.1310 C.2   383  INH383      0.1020
     24  C12       11.1690   -4.8450   -1.2110 C.2   383  INH383      0.0650
     25  C11       11.3330   -6.1760   -1.5980 C.3   383  INH383      0.1030
     26  N3        11.6480   -7.1120   -0.6630 N.am  383  INH383     -0.2950
     27  C10       11.7960   -6.7800    0.6480 C.2   383  INH383      0.3300
     28  H3        11.7750   -8.0820   -0.9500 H     383  INH383      0.1720
     29  O10       12.0800   -7.6520    1.5080 O.2   383  INH383     -0.2460
     30  N4        11.1940   -6.5200   -2.9050 N.3   383  INH383     -0.3850
     31  H17       11.9260   -6.3030   -3.5640 H     383  INH383      0.1570
     32  H14       10.3410   -7.0020   -3.2220 H     383  INH383      0.1570
     33  O11       11.3850    1.1940    3.7310 O.3   383  INH383     -0.3070
     34  H         11.6750    0.7960    4.5660 H     383  INH383      0.2220
     35  C9         9.6440    3.3560    2.2690 C.2   383  INH383      0.2090
     36  O7         8.4490    3.6430    2.4980 O.2   383  INH383     -0.6460
     37  O6        10.5550    3.9020    2.9140 O.3   383  INH383     -0.7720
     38  H         11.0360    3.4120    3.5530 H     383  INH383      0.1670
     39  O2        13.0420    1.4530   -0.7680 O.3   383  INH383     -0.3900
     40  H5        13.1410    1.4400   -1.7130 H     383  INH383      0.2100
     41  C6         8.1580    2.0660   -2.0900 C.3   383  INH383      0.1800
     42  O5         8.1120    1.0490   -3.0950 O.3   383  INH383     -0.3900
     43  H13        8.9680    0.6440   -3.1730 H     383  INH383      0.2100
     44  C7         8.3780    3.4440   -2.7440 C.3   383  INH383      0.1730
     45  O4         8.3420    4.4800   -1.7500 O.3   383  INH383     -0.3910
     46  H12        9.1680    4.9490   -1.7530 H     383  INH383      0.2100
     47  C8         7.3660    3.7850   -3.8410 C.3   383  INH383      0.1980
     48  O3         7.8190    3.2760   -5.1030 O.3   383  INH383     -0.3980
     49  H11        7.0880    3.2440   -5.7100 H     383  INH383      0.2090
     50  N1        10.8880    0.8230   -2.6270 N.am  383  INH383     -0.3520
     51  H6        10.8400    1.0980   -3.5880 H     383  INH383      0.1630
     52  C14       11.1060   -0.4730   -2.3590 C.2   383  INH383      0.2140
     53  C15       11.2600   -1.3560   -3.5640 C.3   383  INH383      0.1170
     54  O12       11.1850   -0.9280   -1.2250 O.2   383  INH383     -0.2740
@<TRIPOS>BOND
     1    49    48    1
     2    48    47    1
     3    47    44    1
     4    51    50    1
     5    31    30    1
     6    53    52    1
     7    32    30    1
     8    43    42    1
     9    42    41    1
    10    30    25    1
    11    44    41    1
    12    44    45    1
    13    50    52   am
    14    50     1    1
    15    52    54    2
    16    41     5    1
    17    46    45    1
    18    40    39    1
    19     1     5    1
    20     1     2    1
    21    25    24    1
    22    25    26    1
    23    24    23    2
    24     5     4    1
    25    28    26    1
    26    39     2    1
    27    26    27   am
    28     2     6    1
    29     4     3    1
    30    23    22    1
    31     7     6    1
    32    27    22   am
    33    27    29    2
    34     6     3    1
    35    22    16    1
    36     3     8    1
    37     3    35    1
    38     8     9    1
    39    35    36    2
    40    35    37    1
    41    16    17    1
    42    16    15    1
    43    12    11    1
    44    12    13    1
    45    14    15    1
    46    14    13    1
    47    14    18    1
    48    17    13    1
    49    11     9    1
    50    15    20    1
    51    37    38    1
    52    19    18    1
    53     9    33    1
    54     9    10    2
    55    33    34    1
    56    20    21    1
