@<TRIPOS>MOLECULE
/tmp/ewbell/vina_2ihj_2ihj_lig/vina/vina2.pdbqt
 54 56 0 0 0
SMALL
GASTEIGER

@<TRIPOS>ATOM
      1  C1         9.1440    2.7990   -2.6720 C.3   383  INH383      0.1470
      2  C2         8.8910    1.3170   -2.3510 C.3   383  INH383      0.1830
      3  C3        10.8340    1.2540   -0.8340 C.3   383  INH383      0.2960
      4  O1        10.9990    2.6590   -1.0910 O.3   383  INH383     -0.3340
      5  C4         9.8200    3.4130   -1.4320 C.3   383  INH383      0.1820
      6  C5        10.2350    0.6210   -2.0890 C.3   383  INH383      0.2750
      7  F1        11.1100    0.7510   -3.1520 F     383  INH383     -0.2400
      8  O8         9.8840    0.9750    0.2260 O.3   383  INH383     -0.2450
      9  P1        10.1240    0.9900    1.8410 P.3   383  INH383      0.3960
     10  O9         8.7570    0.9350    2.4880 O.2   383  INH383     -0.6310
     11  O14       10.7930   -0.4650    2.0460 O.3   383  INH383     -0.2940
     12  C20       10.1090   -1.4610    2.8160 C.3   383  INH383      0.2150
     13  C19       11.0570   -2.5640    3.2900 C.3   383  INH383      0.1800
     14  C16       12.4360   -2.4850    2.6540 C.3   383  INH383      0.1820
     15  C17       12.9180   -3.9130    2.8020 C.3   383  INH383      0.1980
     16  C18       11.6550   -4.7210    2.5520 C.3   383  INH383      0.2630
     17  O13       10.5660   -3.8630    2.9400 O.3   383  INH383     -0.3530
     18  O15       13.2950   -1.5380    3.3000 O.3   383  INH383     -0.3900
     19  H27       13.2810   -0.7200    2.8170 H     383  INH383      0.2100
     20  O16       13.3420   -4.1520    4.1490 O.3   383  INH383     -0.3880
     21  H28       12.9590   -4.9650    4.4600 H     383  INH383      0.2100
     22  N2        11.5490   -5.1650    1.1390 N.am  383  INH383     -0.2800
     23  C13       11.2920   -4.2960    0.1400 C.2   383  INH383      0.1020
     24  C12       11.1870   -4.7260   -1.1790 C.2   383  INH383      0.0650
     25  C11       11.3340   -6.0850   -1.4670 C.3   383  INH383      0.1030
     26  N3        11.5920   -6.9590   -0.4580 N.am  383  INH383     -0.2950
     27  C10       11.6990   -6.5390    0.8320 C.2   383  INH383      0.3300
     28  H3        11.7070   -7.9490   -0.6710 H     383  INH383      0.1720
     29  O10       11.9300   -7.3550    1.7610 O.2   383  INH383     -0.2460
     30  N4        11.2360   -6.5160   -2.7510 N.3   383  INH383     -0.3850
     31  H17       10.7980   -5.9330   -3.4470 H     383  INH383      0.1570
     32  H14       11.6100   -7.4390   -3.0130 H     383  INH383      0.1570
     33  O11       11.0940    2.0860    2.1360 O.3   383  INH383     -0.3070
     34  H         11.9990    1.7550    2.0310 H     383  INH383      0.2220
     35  C9        12.2020    0.6560   -0.5450 C.2   383  INH383      0.2090
     36  O7        13.1710    1.4150   -0.3270 O.2   383  INH383     -0.6460
     37  O6        12.3550   -0.5770   -0.5360 O.3   383  INH383     -0.7720
     38  H         12.0110   -1.0970   -1.2360 H     383  INH383      0.1670
     39  O2         8.1270    0.6040   -3.3360 O.3   383  INH383     -0.3900
     40  H5         7.6240   -0.0800   -2.9110 H     383  INH383      0.2100
     41  C6        10.2150    4.8920   -1.5390 C.3   383  INH383      0.1800
     42  O5        10.4390    5.2160   -2.9140 O.3   383  INH383     -0.3900
     43  H13       11.1360    4.6700   -3.2580 H     383  INH383      0.2100
     44  C7        11.4780    5.2010   -0.7120 C.3   383  INH383      0.1730
     45  O4        11.3290    4.7100    0.6290 O.3   383  INH383     -0.3910
     46  H12       10.4080    4.5650    0.8120 H     383  INH383      0.2100
     47  C8        11.8380    6.6880   -0.6500 C.3   383  INH383      0.1980
     48  O3        13.2610    6.8530   -0.7240 O.3   383  INH383     -0.3980
     49  H11       13.4720    7.7790   -0.6950 H     383  INH383      0.2090
     50  N1         7.8470    3.4560   -2.8100 N.am  383  INH383     -0.3520
     51  H6         7.2050    3.3830   -2.0460 H     383  INH383      0.1630
     52  C14        7.4560    4.1500   -3.8890 C.2   383  INH383      0.2140
     53  C15        6.0790    4.7440   -3.8010 C.3   383  INH383      0.1170
     54  O12        8.1520    4.3090   -4.8840 O.2   383  INH383     -0.2740
@<TRIPOS>BOND
     1    54    52    2
     2    52    53    1
     3    52    50   am
     4    31    30    1
     5    39    40    1
     6    39     2    1
     7    43    42    1
     8     7     6    1
     9    32    30    1
    10    42    41    1
    11    50     1    1
    12    50    51    1
    13    30    25    1
    14     1     2    1
    15     1     5    1
    16     2     6    1
    17     6     3    1
    18    41     5    1
    19    41    44    1
    20    25    24    1
    21    25    26    1
    22     5     4    1
    23    38    37    1
    24    24    23    2
    25     4     3    1
    26     3    35    1
    27     3     8    1
    28    48    49    1
    29    48    47    1
    30    44    47    1
    31    44    45    1
    32    28    26    1
    33    35    37    1
    34    35    36    2
    35    26    27   am
    36    23    22    1
    37     8     9    1
    38    45    46    1
    39    27    22   am
    40    27    29    2
    41    22    16    1
    42     9    11    1
    43     9    33    1
    44     9    10    2
    45    34    33    1
    46    11    12    1
    47    16    15    1
    48    16    17    1
    49    14    15    1
    50    14    13    1
    51    14    18    1
    52    15    20    1
    53    12    13    1
    54    19    18    1
    55    17    13    1
    56    20    21    1
