@<TRIPOS>MOLECULE
60C
 60 90 0 0 0
SMALL
GASTEIGER

@<TRIPOS>ATOM
      1  C         -5.2550    6.0930    7.1900 C.ar    1  UNL1        0.0000
      2  C         -6.2390    6.9310    6.6450 C.ar    1  UNL1        0.0000
      3  C         -7.0210    7.3710    7.7320 C.ar    1  UNL1        0.0000
      4  C         -4.4050    5.7280    9.4500 C.ar    1  UNL1        0.0000
      5  C         -3.0830    5.5920    8.9830 C.ar    1  UNL1        0.0000
      6  C         -2.8480    5.7200    7.5920 C.ar    1  UNL1        0.0000
      7  C         -3.9310    5.9760    6.7390 C.ar    1  UNL1        0.0000
      8  C         -5.8440    7.8330    5.6140 C.ar    1  UNL1        0.0000
      9  C         -4.4960    7.7680    5.2250 C.ar    1  UNL1        0.0000
     10  C         -3.5120    6.8760    5.7080 C.ar    1  UNL1        0.0000
     11  C         -7.3980    8.7410    7.7570 C.ar    1  UNL1        0.0000
     12  C         -7.0890    9.6570    6.7300 C.ar    1  UNL1        0.0000
     13  C         -4.4110    6.3600   10.7230 C.ar    1  UNL1        0.0000
     14  C         -7.0040    8.7470   10.2150 C.ar    1  UNL1        0.0000
     15  C         -7.3790    9.4030    9.0170 C.ar    1  UNL1        0.0000
     16  C         -2.2570    6.2400    9.9370 C.ar    1  UNL1        0.0000
     17  C         -3.0680    6.6960   11.0040 C.ar    1  UNL1        0.0000
     18  C         -2.1480    7.1560    5.8990 C.ar    1  UNL1        0.0000
     19  C         -1.7910    6.5410    7.1070 C.ar    1  UNL1        0.0000
     20  C         -6.1910    9.4100   11.1660 C.ar    1  UNL1        0.0000
     21  C         -5.2240    8.4840   11.5810 C.ar    1  UNL1        0.0000
     22  C         -6.8150   10.9030    7.3530 C.ar    1  UNL1        0.0000
     23  C         -6.9600   10.7340    8.7470 C.ar    1  UNL1        0.0000
     24  C         -1.0180    7.2070    8.0920 C.ar    1  UNL1        0.0000
     25  C         -1.1810    7.0590    9.4780 C.ar    1  UNL1        0.0000
     26  C         -3.8760    8.8040   11.8600 C.ar    1  UNL1        0.0000
     27  C         -2.7880    7.9570   11.6090 C.ar    1  UNL1        0.0000
     28  C         -6.1440   11.3610    9.7220 C.ar    1  UNL1        0.0000
     29  C         -5.7640   10.7530   10.9290 C.ar    1  UNL1        0.0000
     30  C         -4.8540   11.2170    5.8730 C.ar    1  UNL1        0.0000
     31  C         -5.6950   11.6730    6.9280 C.ar    1  UNL1        0.0000
     32  C         -2.7140    9.4430    5.2680 C.ar    1  UNL1        0.0000
     33  C         -1.7520    8.5090    5.6760 C.ar    1  UNL1        0.0000
     34  C         -0.8900    8.3030   10.0910 C.ar    1  UNL1        0.0000
     35  C         -1.7040    8.7510   11.1640 C.ar    1  UNL1        0.0000
     36  C         -2.4480   10.7190    5.8530 C.ar    1  UNL1        0.0000
     37  C         -3.5370   11.5830    6.1260 C.ar    1  UNL1        0.0000
     38  C         -4.8540   12.3120    7.8450 C.ar    1  UNL1        0.0000
     39  C         -5.0830   12.1730    9.2700 C.ar    1  UNL1        0.0000
     40  C         -4.4170   11.0750   11.1540 C.ar    1  UNL1        0.0000
     41  C         -3.4560   10.1490   11.6140 C.ar    1  UNL1        0.0000
     42  C         -3.9770   12.0000   10.1800 C.ar    1  UNL1        0.0000
     43  C         -3.4900   12.2780    7.3590 C.ar    1  UNL1        0.0000
     44  C         -5.5100    7.2090   11.0050 C.ar    1  UNL1        0.0000
     45  C         -6.6230    7.3830   10.1560 C.ar    1  UNL1        0.0000
     46  C         -6.6530    6.7020    8.9080 C.ar    1  UNL1        0.0000
     47  C         -5.5070    5.9520    8.5910 C.ar    1  UNL1        0.0000
     48  C         -6.2700    9.1840    5.6600 C.ar    1  UNL1        0.0000
     49  C         -5.1610    9.9640    5.2830 C.ar    1  UNL1        0.0000
     50  C         -4.0660    9.1150    5.0210 C.ar    1  UNL1        0.0000
     51  C         -2.1130   10.1070   11.2040 C.ar    1  UNL1        0.0000
     52  C         -2.6110   11.9610    9.6970 C.ar    1  UNL1        0.0000
     53  C         -1.6940   11.0290   10.1980 C.ar    1  UNL1        0.0000
     54  C         -0.4690    9.2160    9.0870 C.ar    1  UNL1        0.0000
     55  C         -0.5900    8.5500    7.8570 C.ar    1  UNL1        0.0000
     56  C         -0.8780   10.5770    9.1310 C.ar    1  UNL1        0.0000
     57  C         -0.9990    9.1750    6.6580 C.ar    1  UNL1        0.0000
     58  C         -1.3520   10.5540    6.7040 C.ar    1  UNL1        0.0000
     59  C         -2.3770   12.0970    8.2660 C.ar    1  UNL1        0.0000
     60  C         -1.3080   11.2370    7.9530 C.ar    1  UNL1        0.0000
@<TRIPOS>BOND
     1    50     9   ar
     2    50    32   ar
     3    50    49   ar
     4     9     8   ar
     5     9    10   ar
     6    32    33   ar
     7    32    36   ar
     8    49    48   ar
     9    49    30   ar
    10     8    48   ar
    11     8     2   ar
    12    48    12   ar
    13    33    18   ar
    14    33    57   ar
    15    10    18   ar
    16    10     7   ar
    17    36    37   ar
    18    36    58   ar
    19    30    37   ar
    20    30    31   ar
    21    18    19   ar
    22    37    43   ar
    23     2     1   ar
    24     2     3   ar
    25    57    58   ar
    26    57    55   ar
    27    58    60   ar
    28    12    22   ar
    29    12    11   ar
    30     7     1   ar
    31     7     6   ar
    32    31    22   ar
    33    31    38   ar
    34    19     6   ar
    35    19    24   ar
    36     1    47   ar
    37    22    23   ar
    38    43    38   ar
    39    43    59   ar
    40     6     5   ar
    41     3    11   ar
    42     3    46   ar
    43    11    15   ar
    44    38    39   ar
    45    55    24   ar
    46    55    54   ar
    47    60    59   ar
    48    60    56   ar
    49    24    25   ar
    50    59    52   ar
    51    47    46   ar
    52    47     4   ar
    53    23    15   ar
    54    23    28   ar
    55    46    45   ar
    56     5     4   ar
    57     5    16   ar
    58    15    14   ar
    59    54    56   ar
    60    54    34   ar
    61    56    53   ar
    62    39    28   ar
    63    39    42   ar
    64     4    13   ar
    65    25    16   ar
    66    25    34   ar
    67    52    42   ar
    68    52    53   ar
    69    28    29   ar
    70    16    17   ar
    71    34    35   ar
    72    45    14   ar
    73    45    44   ar
    74    42    40   ar
    75    53    51   ar
    76    14    20   ar
    77    13    17   ar
    78    13    44   ar
    79    29    40   ar
    80    29    20   ar
    81    17    27   ar
    82    44    21   ar
    83    40    41   ar
    84    35    51   ar
    85    35    27   ar
    86    20    21   ar
    87    51    41   ar
    88    21    26   ar
    89    27    26   ar
    90    41    26   ar
