@<TRIPOS>MOLECULE
60C
 60 90 0 0 0
SMALL
GASTEIGER

@<TRIPOS>ATOM
      1  C         -5.6310   10.6290   10.8770 C.ar    1  UNL1        0.0000
      2  C         -5.9810   11.5250    9.8570 C.ar    1  UNL1        0.0000
      3  C         -4.8020   12.2290    9.5370 C.ar    1  UNL1        0.0000
      4  C         -3.5080    9.7760   11.7280 C.ar    1  UNL1        0.0000
      5  C         -4.0460    8.4880   11.9180 C.ar    1  UNL1        0.0000
      6  C         -5.4010    8.2700   11.5690 C.ar    1  UNL1        0.0000
      7  C         -6.1510    9.3370   11.0510 C.ar    1  UNL1        0.0000
      8  C         -6.8530   11.0550    8.8320 C.ar    1  UNL1        0.0000
      9  C         -7.3030    9.7310    8.9680 C.ar    1  UNL1        0.0000
     10  C         -7.0250    8.8430   10.0310 C.ar    1  UNL1        0.0000
     11  C         -4.5220   12.4510    8.1620 C.ar    1  UNL1        0.0000
     12  C         -5.3840   12.0640    7.1150 C.ar    1  UNL1        0.0000
     13  C         -2.1450    9.6840   11.3360 C.ar    1  UNL1        0.0000
     14  C         -2.1190   12.0050    8.6370 C.ar    1  UNL1        0.0000
     15  C         -3.1670   12.3300    7.7410 C.ar    1  UNL1        0.0000
     16  C         -3.0280    7.5730   11.5420 C.ar    1  UNL1        0.0000
     17  C         -1.8650    8.3060   11.2000 C.ar    1  UNL1        0.0000
     18  C         -6.8440    7.4520    9.9360 C.ar    1  UNL1        0.0000
     19  C         -5.7780    7.1390   10.7910 C.ar    1  UNL1        0.0000
     20  C         -1.1020   11.1020    8.2440 C.ar    1  UNL1        0.0000
     21  C         -0.8950   10.2350    9.3260 C.ar    1  UNL1        0.0000
     22  C         -4.5640   11.6390    6.0370 C.ar    1  UNL1        0.0000
     23  C         -3.2170   11.7720    6.4350 C.ar    1  UNL1        0.0000
     24  C         -4.7250    6.2750   10.3970 C.ar    1  UNL1        0.0000
     25  C         -3.3810    6.4240   10.7720 C.ar    1  UNL1        0.0000
     26  C         -0.6200    8.8550    9.2060 C.ar    1  UNL1        0.0000
     27  C         -1.0600    7.8740   10.1040 C.ar    1  UNL1        0.0000
     28  C         -2.1820   10.8700    6.0830 C.ar    1  UNL1        0.0000
     29  C         -1.1170   10.5340    6.9330 C.ar    1  UNL1        0.0000
     30  C         -6.0470    9.6880    5.6730 C.ar    1  UNL1        0.0000
     31  C         -4.8940   10.4500    5.3260 C.ar    1  UNL1        0.0000
     32  C         -7.0400    7.7740    7.5260 C.ar    1  UNL1        0.0000
     33  C         -6.8430    6.9120    8.6140 C.ar    1  UNL1        0.0000
     34  C         -2.5720    5.9820    9.6960 C.ar    1  UNL1        0.0000
     35  C         -1.4040    6.7180    9.3630 C.ar    1  UNL1        0.0000
     36  C         -6.2530    7.3540    6.4100 C.ar    1  UNL1        0.0000
     37  C         -5.7880    8.3330    5.4990 C.ar    1  UNL1        0.0000
     38  C         -3.9150    9.5230    4.9540 C.ar    1  UNL1        0.0000
     39  C         -2.5280    9.7350    5.3200 C.ar    1  UNL1        0.0000
     40  C         -0.8950    9.1550    6.8010 C.ar    1  UNL1        0.0000
     41  C         -0.6440    8.2930    7.8910 C.ar    1  UNL1        0.0000
     42  C         -1.7090    8.6350    5.7680 C.ar    1  UNL1        0.0000
     43  C         -4.4550    8.1830    5.0440 C.ar    1  UNL1        0.0000
     44  C         -1.6730   10.6750   10.4400 C.ar    1  UNL1        0.0000
     45  C         -2.4320   11.7800   10.0010 C.ar    1  UNL1        0.0000
     46  C         -3.7780   11.9130   10.4410 C.ar    1  UNL1        0.0000
     47  C         -4.2680   10.8650   11.2390 C.ar    1  UNL1        0.0000
     48  C         -6.5540   11.3270    7.4740 C.ar    1  UNL1        0.0000
     49  C         -6.8330   10.1460    6.7610 C.ar    1  UNL1        0.0000
     50  C         -7.2860    9.1590    7.6600 C.ar    1  UNL1        0.0000
     51  C         -1.1100    6.9720    8.0000 C.ar    1  UNL1        0.0000
     52  C         -2.2470    7.2930    5.8650 C.ar    1  UNL1        0.0000
     53  C         -1.9560    6.4750    6.9630 C.ar    1  UNL1        0.0000
     54  C         -3.4170    5.4840    8.6680 C.ar    1  UNL1        0.0000
     55  C         -4.7390    5.7060    9.0870 C.ar    1  UNL1        0.0000
     56  C         -3.1180    5.7380    7.3010 C.ar    1  UNL1        0.0000
     57  C         -5.7910    6.0690    8.2180 C.ar    1  UNL1        0.0000
     58  C         -5.4900    6.2650    6.8400 C.ar    1  UNL1        0.0000
     59  C         -3.6410    7.0770    5.5010 C.ar    1  UNL1        0.0000
     60  C         -4.1430    6.1180    6.3990 C.ar    1  UNL1        0.0000
@<TRIPOS>BOND
     1    38    43   ar
     2    38    39   ar
     3    38    31   ar
     4    43    37   ar
     5    43    59   ar
     6    39    42   ar
     7    39    28   ar
     8    31    30   ar
     9    31    22   ar
    10    37    30   ar
    11    37    36   ar
    12    59    52   ar
    13    59    60   ar
    14    30    49   ar
    15    42    52   ar
    16    42    40   ar
    17    52    53   ar
    18    22    23   ar
    19    22    12   ar
    20    28    23   ar
    21    28    29   ar
    22    60    58   ar
    23    60    56   ar
    24    36    58   ar
    25    36    32   ar
    26    23    15   ar
    27    49    48   ar
    28    49    50   ar
    29    40    29   ar
    30    40    41   ar
    31    58    57   ar
    32    29    20   ar
    33    53    56   ar
    34    53    51   ar
    35    12    48   ar
    36    12    11   ar
    37    56    54   ar
    38    48     8   ar
    39    32    50   ar
    40    32    33   ar
    41    50     9   ar
    42    15    11   ar
    43    15    14   ar
    44    41    51   ar
    45    41    26   ar
    46    51    35   ar
    47    11     3   ar
    48    57    33   ar
    49    57    55   ar
    50    20    14   ar
    51    20    21   ar
    52    33    18   ar
    53    14    45   ar
    54    54    55   ar
    55    54    34   ar
    56     8     9   ar
    57     8     2   ar
    58     9    10   ar
    59    55    24   ar
    60    26    21   ar
    61    26    27   ar
    62    21    44   ar
    63    35    34   ar
    64    35    27   ar
    65     3     2   ar
    66     3    46   ar
    67    34    25   ar
    68     2     1   ar
    69    18    10   ar
    70    18    19   ar
    71    45    44   ar
    72    45    46   ar
    73    10     7   ar
    74    27    17   ar
    75    24    25   ar
    76    24    19   ar
    77    44    13   ar
    78    46    47   ar
    79    25    16   ar
    80    19     6   ar
    81     1     7   ar
    82     1    47   ar
    83     7     6   ar
    84    17    13   ar
    85    17    16   ar
    86    47     4   ar
    87    13     4   ar
    88    16     5   ar
    89     6     5   ar
    90     4     5   ar
