@<TRIPOS>MOLECULE
60C
 60 90 0 0 0
SMALL
GASTEIGER

@<TRIPOS>ATOM
      1  C         -3.5440   10.2310   11.5650 C.ar    1  UNL1        0.0000
      2  C         -2.1860   10.2440   11.2170 C.ar    1  UNL1        0.0000
      3  C         -1.7870    8.8930   11.1610 C.ar    1  UNL1        0.0000
      4  C         -5.2780    8.5130   11.5590 C.ar    1  UNL1        0.0000
      5  C         -6.2540    9.4280   11.1180 C.ar    1  UNL1        0.0000
      6  C         -5.8580   10.7680   10.8880 C.ar    1  UNL1        0.0000
      7  C         -4.5200   11.1300   11.1060 C.ar    1  UNL1        0.0000
      8  C         -1.7650   11.1740   10.2220 C.ar    1  UNL1        0.0000
      9  C         -2.7650   12.0150    9.7050 C.ar    1  UNL1        0.0000
     10  C         -4.1200   12.0690   10.1020 C.ar    1  UNL1        0.0000
     11  C         -0.9520    8.4990   10.0800 C.ar    1  UNL1        0.0000
     12  C         -0.4560    9.3930    9.1090 C.ar    1  UNL1        0.0000
     13  C         -5.5260    7.2280   11.0030 C.ar    1  UNL1        0.0000
     14  C         -2.2390    6.3730    9.9340 C.ar    1  UNL1        0.0000
     15  C         -1.2050    7.2310    9.4850 C.ar    1  UNL1        0.0000
     16  C         -7.0660    8.7260   10.1910 C.ar    1  UNL1        0.0000
     17  C         -6.6280    7.3810   10.1330 C.ar    1  UNL1        0.0000
     18  C         -5.2270   12.3220    9.2730 C.ar    1  UNL1        0.0000
     19  C         -6.2340   11.4420    9.6920 C.ar    1  UNL1        0.0000
     20  C         -3.0340    5.6680    8.9990 C.ar    1  UNL1        0.0000
     21  C         -4.3620    5.7840    9.4320 C.ar    1  UNL1        0.0000
     22  C         -0.4470    8.6990    7.8700 C.ar    1  UNL1        0.0000
     23  C         -0.9350    7.3950    8.0990 C.ar    1  UNL1        0.0000
     24  C         -7.0070   10.6890    8.7710 C.ar    1  UNL1        0.0000
     25  C         -7.4690    9.3820    8.9890 C.ar    1  UNL1        0.0000
     26  C         -5.4730    5.9430    8.5750 C.ar    1  UNL1        0.0000
     27  C         -6.6120    6.7020    8.8780 C.ar    1  UNL1        0.0000
     28  C         -1.7560    6.6730    7.1960 C.ar    1  UNL1        0.0000
     29  C         -2.7790    5.8010    7.5990 C.ar    1  UNL1        0.0000
     30  C         -1.3870   10.6930    6.7400 C.ar    1  UNL1        0.0000
     31  C         -0.9190    9.3480    6.6940 C.ar    1  UNL1        0.0000
     32  C         -3.6230   12.3060    7.4340 C.ar    1  UNL1        0.0000
     33  C         -4.9480   12.4300    7.8770 C.ar    1  UNL1        0.0000
     34  C         -7.4720    8.7030    7.7450 C.ar    1  UNL1        0.0000
     35  C         -7.0370    7.3520    7.6950 C.ar    1  UNL1        0.0000
     36  C         -3.5820   11.6390    6.1720 C.ar    1  UNL1        0.0000
     37  C         -2.4450   10.8560    5.8530 C.ar    1  UNL1        0.0000
     38  C         -1.7340    8.6870    5.7690 C.ar    1  UNL1        0.0000
     39  C         -2.1530    7.3190    6.0070 C.ar    1  UNL1        0.0000
     40  C         -3.8690    6.0080    6.7390 C.ar    1  UNL1        0.0000
     41  C         -5.2090    6.0820    7.1760 C.ar    1  UNL1        0.0000
     42  C         -3.4990    6.8980    5.7040 C.ar    1  UNL1        0.0000
     43  C         -2.6970    9.6170    5.2170 C.ar    1  UNL1        0.0000
     44  C         -4.3900    6.4370   10.7020 C.ar    1  UNL1        0.0000
     45  C         -3.0610    6.7980   11.0070 C.ar    1  UNL1        0.0000
     46  C         -2.8120    8.0550   11.6240 C.ar    1  UNL1        0.0000
     47  C         -3.9350    8.8790   11.8140 C.ar    1  UNL1        0.0000
     48  C         -0.9050   10.7480    9.1790 C.ar    1  UNL1        0.0000
     49  C         -1.3830   11.3460    7.9990 C.ar    1  UNL1        0.0000
     50  C         -2.5240   12.1180    8.3020 C.ar    1  UNL1        0.0000
     51  C         -6.1880    6.9370    6.6410 C.ar    1  UNL1        0.0000
     52  C         -4.4670    7.8270    5.1560 C.ar    1  UNL1        0.0000
     53  C         -5.7890    7.8490    5.6170 C.ar    1  UNL1        0.0000
     54  C         -7.0790    9.6160    6.7290 C.ar    1  UNL1        0.0000
     55  C         -6.7540   10.8220    7.3710 C.ar    1  UNL1        0.0000
     56  C         -6.2280    9.1950    5.6700 C.ar    1  UNL1        0.0000
     57  C         -5.7030   11.6730    6.9660 C.ar    1  UNL1        0.0000
     58  C         -4.8940   11.2670    5.8660 C.ar    1  UNL1        0.0000
     59  C         -4.0510    9.2030    4.9190 C.ar    1  UNL1        0.0000
     60  C         -5.1540   10.0140    5.2420 C.ar    1  UNL1        0.0000
@<TRIPOS>BOND
     1    59    52   ar
     2    59    43   ar
     3    59    60   ar
     4    52    53   ar
     5    52    42   ar
     6    43    38   ar
     7    43    37   ar
     8    60    56   ar
     9    60    58   ar
    10    53    56   ar
    11    53    51   ar
    12    56    54   ar
    13    42    39   ar
    14    42    40   ar
    15    38    39   ar
    16    38    31   ar
    17    37    36   ar
    18    37    30   ar
    19    58    36   ar
    20    58    57   ar
    21    39    28   ar
    22    36    32   ar
    23    51    41   ar
    24    51    35   ar
    25    31    30   ar
    26    31    22   ar
    27    54    55   ar
    28    54    34   ar
    29    40    41   ar
    30    40    29   ar
    31    30    49   ar
    32    57    55   ar
    33    57    33   ar
    34    41    26   ar
    35    28    29   ar
    36    28    23   ar
    37    55    24   ar
    38    32    33   ar
    39    32    50   ar
    40    29    20   ar
    41    35    34   ar
    42    35    27   ar
    43    34    25   ar
    44    22    23   ar
    45    22    12   ar
    46    33    18   ar
    47    49    50   ar
    48    49    48   ar
    49    23    15   ar
    50    50     9   ar
    51    26    27   ar
    52    26    21   ar
    53    24    25   ar
    54    24    19   ar
    55    27    17   ar
    56    25    16   ar
    57    20    21   ar
    58    20    14   ar
    59    12    48   ar
    60    12    11   ar
    61    48     8   ar
    62    18    19   ar
    63    18    10   ar
    64    21    44   ar
    65    15    14   ar
    66    15    11   ar
    67    19     6   ar
    68     9    10   ar
    69     9     8   ar
    70    14    45   ar
    71    11     3   ar
    72    10     7   ar
    73    17    16   ar
    74    17    13   ar
    75    16     5   ar
    76     8     2   ar
    77    44    13   ar
    78    44    45   ar
    79     6     7   ar
    80     6     5   ar
    81    13     4   ar
    82    45    46   ar
    83     7     1   ar
    84     5     4   ar
    85     3     2   ar
    86     3    46   ar
    87     2     1   ar
    88     4    47   ar
    89     1    47   ar
    90    46    47   ar
