@<TRIPOS>MOLECULE
60C
 60 90 0 0 0
SMALL
GASTEIGER

@<TRIPOS>ATOM
      1  C         -2.3090    9.8430   11.1620 C.ar    1  UNL1        0.0000
      2  C         -1.9000    8.5020   11.1370 C.ar    1  UNL1        0.0000
      3  C         -3.0360    7.7420   11.4820 C.ar    1  UNL1        0.0000
      4  C         -4.4850   10.9490   11.1550 C.ar    1  UNL1        0.0000
      5  C         -4.0170   11.9730   10.3080 C.ar    1  UNL1        0.0000
      6  C         -2.6700   11.9190    9.8750 C.ar    1  UNL1        0.0000
      7  C         -1.8590   10.8570   10.3020 C.ar    1  UNL1        0.0000
      8  C         -1.0370    8.0910   10.0790 C.ar    1  UNL1        0.0000
      9  C         -0.6580    9.0950    9.1720 C.ar    1  UNL1        0.0000
     10  C         -0.9970   10.4650    9.2290 C.ar    1  UNL1        0.0000
     11  C         -3.2840    6.5570   10.7370 C.ar    1  UNL1        0.0000
     12  C         -2.4270    6.0750    9.7260 C.ar    1  UNL1        0.0000
     13  C         -5.8460   10.6570   10.8640 C.ar    1  UNL1        0.0000
     14  C         -5.7130    7.1000   10.7900 C.ar    1  UNL1        0.0000
     15  C         -4.6370    6.2640   10.4040 C.ar    1  UNL1        0.0000
     16  C         -5.0750   12.2550    9.4060 C.ar    1  UNL1        0.0000
     17  C         -6.1940   11.4610    9.7560 C.ar    1  UNL1        0.0000
     18  C         -1.2470   11.3130    8.1350 C.ar    1  UNL1        0.0000
     19  C         -2.3400   12.1100    8.5040 C.ar    1  UNL1        0.0000
     20  C         -6.7700    7.3630    9.8850 C.ar    1  UNL1        0.0000
     21  C         -7.0360    8.7370    9.9690 C.ar    1  UNL1        0.0000
     22  C         -3.2520    5.5180    8.7130 C.ar    1  UNL1        0.0000
     23  C         -4.5960    5.6660    9.1160 C.ar    1  UNL1        0.0000
     24  C         -3.4310   12.3440    7.6280 C.ar    1  UNL1        0.0000
     25  C         -4.7710   12.4640    8.0270 C.ar    1  UNL1        0.0000
     26  C         -7.3800    9.5540    8.8690 C.ar    1  UNL1        0.0000
     27  C         -7.0040   10.8970    8.7260 C.ar    1  UNL1        0.0000
     28  C         -5.6720    5.9570    8.2390 C.ar    1  UNL1        0.0000
     29  C         -6.7640    6.7660    8.5870 C.ar    1  UNL1        0.0000
     30  C         -1.8660    6.6140    6.9760 C.ar    1  UNL1        0.0000
     31  C         -2.9730    5.7950    7.3440 C.ar    1  UNL1        0.0000
     32  C         -0.9990    9.3130    6.7600 C.ar    1  UNL1        0.0000
     33  C         -1.2570   10.6880    6.8510 C.ar    1  UNL1        0.0000
     34  C         -5.5850   11.9210    7.0030 C.ar    1  UNL1        0.0000
     35  C         -6.7090   11.1300    7.3610 C.ar    1  UNL1        0.0000
     36  C         -1.7910    8.7270    5.7260 C.ar    1  UNL1        0.0000
     37  C         -2.1920    7.3750    5.8590 C.ar    1  UNL1        0.0000
     38  C         -3.9930    6.0930    6.4340 C.ar    1  UNL1        0.0000
     39  C         -5.3730    6.1610    6.8760 C.ar    1  UNL1        0.0000
     40  C         -7.0550    7.5770    7.4790 C.ar    1  UNL1        0.0000
     41  C         -7.3650    8.9510    7.5720 C.ar    1  UNL1        0.0000
     42  C         -6.2540    7.1900    6.3800 C.ar    1  UNL1        0.0000
     43  C         -3.5240    7.0770    5.4820 C.ar    1  UNL1        0.0000
     44  C         -6.2530    9.3080   11.0170 C.ar    1  UNL1        0.0000
     45  C         -5.4320    8.2790   11.5240 C.ar    1  UNL1        0.0000
     46  C         -4.0880    8.5790   11.8780 C.ar    1  UNL1        0.0000
     47  C         -3.6630    9.8940   11.6180 C.ar    1  UNL1        0.0000
     48  C         -1.3020    6.8860    9.3830 C.ar    1  UNL1        0.0000
     49  C         -1.0730    7.1540    8.0210 C.ar    1  UNL1        0.0000
     50  C         -0.6860    8.5010    7.8730 C.ar    1  UNL1        0.0000
     51  C         -6.9690    9.9330    6.6490 C.ar    1  UNL1        0.0000
     52  C         -5.7860    8.1810    5.4300 C.ar    1  UNL1        0.0000
     53  C         -6.1350    9.5300    5.5630 C.ar    1  UNL1        0.0000
     54  C         -4.7520   11.5250    5.9220 C.ar    1  UNL1        0.0000
     55  C         -3.4270   11.7490    6.3290 C.ar    1  UNL1        0.0000
     56  C         -5.0180   10.3250    5.2070 C.ar    1  UNL1        0.0000
     57  C         -2.3440   10.9080    5.9890 C.ar    1  UNL1        0.0000
     58  C         -2.6150    9.7380    5.2240 C.ar    1  UNL1        0.0000
     59  C         -4.4000    8.1170    4.9870 C.ar    1  UNL1        0.0000
     60  C         -3.9610    9.4470    4.8580 C.ar    1  UNL1        0.0000
@<TRIPOS>BOND
     1    60    59   ar
     2    60    56   ar
     3    60    58   ar
     4    59    52   ar
     5    59    43   ar
     6    56    53   ar
     7    56    54   ar
     8    58    36   ar
     9    58    57   ar
    10    52    53   ar
    11    52    42   ar
    12    43    37   ar
    13    43    38   ar
    14    53    51   ar
    15    36    37   ar
    16    36    32   ar
    17    37    30   ar
    18    54    55   ar
    19    54    34   ar
    20    57    55   ar
    21    57    33   ar
    22    55    24   ar
    23    42    39   ar
    24    42    40   ar
    25    38    39   ar
    26    38    31   ar
    27    51    35   ar
    28    51    41   ar
    29    32    33   ar
    30    32    50   ar
    31    33    18   ar
    32    39    28   ar
    33    30    31   ar
    34    30    49   ar
    35    34    35   ar
    36    34    25   ar
    37    31    22   ar
    38    35    27   ar
    39    40    41   ar
    40    40    29   ar
    41    41    26   ar
    42    24    25   ar
    43    24    19   ar
    44    50    49   ar
    45    50     9   ar
    46    49    48   ar
    47    25    16   ar
    48    18    19   ar
    49    18    10   ar
    50    28    29   ar
    51    28    23   ar
    52    19     6   ar
    53    29    20   ar
    54    22    23   ar
    55    22    12   ar
    56    27    26   ar
    57    27    17   ar
    58    26    21   ar
    59    23    15   ar
    60     9    10   ar
    61     9     8   ar
    62    10     7   ar
    63    48    12   ar
    64    48     8   ar
    65    16    17   ar
    66    16     5   ar
    67    12    11   ar
    68    17    13   ar
    69     6     7   ar
    70     6     5   ar
    71    20    21   ar
    72    20    14   ar
    73    21    44   ar
    74     8     2   ar
    75     7     1   ar
    76     5     4   ar
    77    15    11   ar
    78    15    14   ar
    79    11     3   ar
    80    14    45   ar
    81    13    44   ar
    82    13     4   ar
    83    44    45   ar
    84     2     1   ar
    85     2     3   ar
    86     4    47   ar
    87     1    47   ar
    88     3    46   ar
    89    45    46   ar
    90    47    46   ar
