@<TRIPOS>MOLECULE
60C
 60 90 0 0 0
SMALL
GASTEIGER

@<TRIPOS>ATOM
      1  C         -4.3560    6.5310   10.6610 C.ar    1  UNL1        0.0000
      2  C         -3.0270    6.8310   10.9900 C.ar    1  UNL1        0.0000
      3  C         -2.2470    6.3880    9.9030 C.ar    1  UNL1        0.0000
      4  C         -5.4960    5.9520    8.5810 C.ar    1  UNL1        0.0000
      5  C         -6.6280    6.7130    8.9320 C.ar    1  UNL1        0.0000
      6  C         -6.6130    7.4030   10.1690 C.ar    1  UNL1        0.0000
      7  C         -5.4810    7.3030   10.9910 C.ar    1  UNL1        0.0000
      8  C         -2.7660    8.0860   11.6150 C.ar    1  UNL1        0.0000
      9  C         -3.8890    8.8920   11.8660 C.ar    1  UNL1        0.0000
     10  C         -5.2410    8.5700   11.6140 C.ar    1  UNL1        0.0000
     11  C         -1.1970    7.2360    9.4590 C.ar    1  UNL1        0.0000
     12  C         -0.8580    8.4540   10.0830 C.ar    1  UNL1        0.0000
     13  C         -5.2820    6.0120    7.1770 C.ar    1  UNL1        0.0000
     14  C         -1.7760    6.6320    7.1140 C.ar    1  UNL1        0.0000
     15  C         -0.9870    7.3390    8.0540 C.ar    1  UNL1        0.0000
     16  C         -7.0690    7.3410    7.7380 C.ar    1  UNL1        0.0000
     17  C         -6.2530    6.9010    6.6680 C.ar    1  UNL1        0.0000
     18  C         -6.2520    9.4570   11.2040 C.ar    1  UNL1        0.0000
     19  C         -7.0060    8.7700   10.2430 C.ar    1  UNL1        0.0000
     20  C         -2.1980    7.2660    5.9200 C.ar    1  UNL1        0.0000
     21  C         -3.5480    6.9310    5.7440 C.ar    1  UNL1        0.0000
     22  C         -0.4810    9.3580    9.0550 C.ar    1  UNL1        0.0000
     23  C         -0.5930    8.6840    7.8210 C.ar    1  UNL1        0.0000
     24  C         -7.3950    9.3730    9.0200 C.ar    1  UNL1        0.0000
     25  C         -7.4810    8.7070    7.7870 C.ar    1  UNL1        0.0000
     26  C         -4.5320    7.8110    5.2410 C.ar    1  UNL1        0.0000
     27  C         -5.8720    7.8260    5.6500 C.ar    1  UNL1        0.0000
     28  C         -1.0390    9.2830    6.6150 C.ar    1  UNL1        0.0000
     29  C         -1.8080    8.6140    5.6500 C.ar    1  UNL1        0.0000
     30  C         -1.8010   11.1510   10.1410 C.ar    1  UNL1        0.0000
     31  C         -0.9600   10.6990    9.0840 C.ar    1  UNL1        0.0000
     32  C         -4.4830   11.1320   11.0870 C.ar    1  UNL1        0.0000
     33  C         -5.8330   10.7920   10.9210 C.ar    1  UNL1        0.0000
     34  C         -7.1180    9.6220    6.7670 C.ar    1  UNL1        0.0000
     35  C         -6.3060    9.1720    5.6930 C.ar    1  UNL1        0.0000
     36  C         -4.0800   12.0680   10.0860 C.ar    1  UNL1        0.0000
     37  C         -2.7320   12.0590    9.6490 C.ar    1  UNL1        0.0000
     38  C         -1.4150   11.3400    7.9270 C.ar    1  UNL1        0.0000
     39  C         -1.4440   10.6330    6.6610 C.ar    1  UNL1        0.0000
     40  C         -2.7850    9.5130    5.1960 C.ar    1  UNL1        0.0000
     41  C         -4.1350    9.1600    4.9790 C.ar    1  UNL1        0.0000
     42  C         -2.5560   10.7910    5.7550 C.ar    1  UNL1        0.0000
     43  C         -2.5240   12.2100    8.2570 C.ar    1  UNL1        0.0000
     44  C         -3.9340    5.9830    6.7390 C.ar    1  UNL1        0.0000
     45  C         -2.8220    5.8020    7.5880 C.ar    1  UNL1        0.0000
     46  C         -3.0350    5.6750    8.9880 C.ar    1  UNL1        0.0000
     47  C         -4.3650    5.8180    9.4220 C.ar    1  UNL1        0.0000
     48  C         -1.6880    8.8860   11.1630 C.ar    1  UNL1        0.0000
     49  C         -2.1570   10.2120   11.1440 C.ar    1  UNL1        0.0000
     50  C         -3.5030   10.2330   11.5640 C.ar    1  UNL1        0.0000
     51  C         -5.2390    9.9880    5.2430 C.ar    1  UNL1        0.0000
     52  C         -3.6700   11.6580    6.0840 C.ar    1  UNL1        0.0000
     53  C         -4.9910   11.2630    5.8350 C.ar    1  UNL1        0.0000
     54  C         -6.8760   10.8900    7.3610 C.ar    1  UNL1        0.0000
     55  C         -7.0070   10.7200    8.7480 C.ar    1  UNL1        0.0000
     56  C         -5.8060   11.7080    6.9040 C.ar    1  UNL1        0.0000
     57  C         -6.2050   11.3840    9.7030 C.ar    1  UNL1        0.0000
     58  C         -5.1730   12.2460    9.2330 C.ar    1  UNL1        0.0000
     59  C         -3.6460   12.3660    7.3570 C.ar    1  UNL1        0.0000
     60  C         -4.9710   12.3810    7.8300 C.ar    1  UNL1        0.0000
@<TRIPOS>BOND
     1    41    40   ar
     2    41    26   ar
     3    41    51   ar
     4    40    29   ar
     5    40    42   ar
     6    26    27   ar
     7    26    21   ar
     8    51    35   ar
     9    51    53   ar
    10    27    35   ar
    11    27    17   ar
    12    29    20   ar
    13    29    28   ar
    14    35    34   ar
    15    21    20   ar
    16    21    44   ar
    17    42    52   ar
    18    42    39   ar
    19    53    52   ar
    20    53    56   ar
    21    20    14   ar
    22    52    59   ar
    23    28    39   ar
    24    28    23   ar
    25    39    38   ar
    26    17    13   ar
    27    17    16   ar
    28    44    13   ar
    29    44    45   ar
    30    34    54   ar
    31    34    25   ar
    32    56    54   ar
    33    56    60   ar
    34    14    45   ar
    35    14    15   ar
    36    13     4   ar
    37    59    60   ar
    38    59    43   ar
    39    54    55   ar
    40    45    46   ar
    41    16    25   ar
    42    16     5   ar
    43    25    24   ar
    44    23    15   ar
    45    23    22   ar
    46    60    58   ar
    47    38    43   ar
    48    38    31   ar
    49    15    11   ar
    50    43    37   ar
    51     4     5   ar
    52     4    47   ar
    53    55    24   ar
    54    55    57   ar
    55     5     6   ar
    56    46    47   ar
    57    46     3   ar
    58    24    19   ar
    59    22    31   ar
    60    22    12   ar
    61    31    30   ar
    62    58    57   ar
    63    58    36   ar
    64    47     1   ar
    65    11     3   ar
    66    11    12   ar
    67    37    36   ar
    68    37    30   ar
    69    57    33   ar
    70     3     2   ar
    71    12    48   ar
    72    36    32   ar
    73    30    49   ar
    74     6    19   ar
    75     6     7   ar
    76    19    18   ar
    77     1     2   ar
    78     1     7   ar
    79    33    32   ar
    80    33    18   ar
    81     2     8   ar
    82     7    10   ar
    83    32    50   ar
    84    49    48   ar
    85    49    50   ar
    86    48     8   ar
    87    18    10   ar
    88    50     9   ar
    89    10     9   ar
    90     8     9   ar
