@<TRIPOS>MOLECULE
./ligand/1b6j_lig.pdb
 103 105 0 0 0
SMALL
GASTEIGER

@<TRIPOS>ATOM
      1  C1         6.0980    4.6800    9.6030 C.3   203  INH203     -0.0104
      2  C2         4.1570    3.4300   10.5900 C.2   203  INH203      0.2137
      3  O1         3.7960    4.3130   11.3740 O.2   203  INH203     -0.2758
      4  C3         4.8970    3.7810    9.3140 C.3   203  INH203      0.0270
      5  N1         3.9350    2.1390   10.8180 N.am  203  INH203     -0.3035
      6  C4         3.2650    1.6680   12.0450 C.3   203  INH203      0.1075
      7  C5         4.0410    0.4620   12.5560 C.2   203  INH203      0.2341
      8  O2         3.9570   -0.6280   11.9920 O.2   203  INH203     -0.2738
      9  C6         1.8040    1.3250   11.7710 C.3   203  INH203      0.0506
     10  C7         1.0450    2.5070   11.2100 C.2   203  INH203      0.2127
     11  O3         0.6600    3.4160   11.9450 O.2   203  INH203     -0.2760
     12  N2         0.8940    2.5410    9.8930 N.am  203  INH203     -0.3293
     13  N3         4.8490    0.6910   13.5920 N.am  203  INH203     -0.3079
     14  C8         5.6860   -0.3610   14.1980 C.3   203  INH203      0.0580
     15  C9         7.1130    0.1920   14.3260 C.3   203  INH203     -0.0066
     16  C10        7.4940    0.8960   13.0550 C.ar  203  INH203     -0.0453
     17  C11        7.4990    2.2910   12.9850 C.ar  203  INH203     -0.0551
     18  C12        7.6070    2.9550   11.7550 C.ar  203  INH203     -0.0197
     19  C13        7.6300    0.1790   11.8640 C.ar  203  INH203     -0.0551
     20  C14        7.7340    0.8310   10.6380 C.ar  203  INH203     -0.0197
     21  C15        7.7080    2.2200   10.5750 C.ar  203  INH203      0.1205
     22  O4         7.6860    2.7860    9.2980 O.3   203  INH203     -0.4920
     23  C16        7.4460    4.1620    9.0120 C.3   203  INH203      0.0900
     24  C17        5.1540   -0.6860   15.5970 C.3   203  INH203      0.1133
     25  O5         5.2480    0.4690   16.4450 O.3   203  INH203     -0.3847
     26  C18        3.6990   -1.0900   15.4870 C.3   203  INH203     -0.0027
     27  N4         3.5160   -2.5440   15.4480 N.4   203  INH203      0.2458
     28  C19        4.2080   -3.3990   16.4120 C.3   203  INH203      0.0569
     29  C20        5.5010   -4.0600   15.9380 C.2   203  INH203      0.2619
     30  O6         5.8130   -4.1120   14.7460 O.2   203  INH203     -0.2696
     31  C21        3.1600   -4.4580   16.7160 C.3   203  INH203      0.0038
     32  C22        2.5420   -4.6660   15.3720 C.3   203  INH203     -0.0069
     33  C23        2.3670   -3.2470   14.8510 C.3   203  INH203     -0.0309
     34  N5         6.2670   -4.5230   16.9150 N.am  203  INH203     -0.2991
     35  C24        7.5050   -5.2630   16.6770 C.3   203  INH203      0.1021
     36  C25        7.3570   -6.4010   17.6690 C.2   203  INH203      0.2342
     37  O7         7.3650   -6.1760   18.8800 O.2   203  INH203     -0.2738
     38  C26        8.7830   -4.4560   17.0160 C.3   203  INH203     -0.0171
     39  C27        8.9550   -3.2820   16.0500 C.3   203  INH203     -0.0512
     40  C28       10.0080   -5.3640   16.9340 C.3   203  INH203     -0.0603
     41  C29        9.1600   -3.6980   14.6320 C.3   203  INH203     -0.0650
     42  N6         7.0850   -7.5930   17.1520 N.am  203  INH203     -0.3022
     43  C30        6.9200   -8.7790   18.0020 C.3   203  INH203      0.1015
     44  C31        8.0430   -9.7860   17.7430 C.2   203  INH203      0.2311
     45  O8         8.3940  -10.0630   16.5900 O.2   203  INH203     -0.2740
     46  C32        5.5280   -9.4500   17.7970 C.3   203  INH203     -0.0197
     47  C33        4.4170   -8.4300   18.0070 C.3   203  INH203     -0.0605
     48  C34        5.4180  -10.0870   16.4130 C.3   203  INH203     -0.0605
     49  N7         8.6300  -10.3170   18.8160 N.am  203  INH203     -0.3278
     50  H1         5.8950    5.6740    9.1770 H     203  INH203      0.0302
     51  H2         6.2100    4.7650   10.6940 H     203  INH203      0.0302
     52  H3         5.2490    2.8550    8.8370 H     203  INH203      0.0359
     53  H4         4.2100    4.3060    8.6340 H     203  INH203      0.0359
     54  H5         4.2310    1.4680   10.1380 H     203  INH203      0.1495
     55  H6         3.2980    2.4640   12.8040 H     203  INH203      0.0599
     56  H7         1.3290    1.0120   12.7120 H     203  INH203      0.0381
     57  H8         1.7620    0.4990   11.0460 H     203  INH203      0.0381
     58  H9         0.4010    3.2990    9.4660 H     203  INH203      0.1449
     59  H10        1.2730    1.8090    9.3270 H     203  INH203      0.1449
     60  H11        4.8890    1.6140   13.9740 H     203  INH203      0.1491
     61  H12        5.6790   -1.2650   13.5710 H     203  INH203      0.0529
     62  H13        7.8120   -0.6370   14.5090 H     203  INH203      0.0332
     63  H14        7.1570    0.9020   15.1650 H     203  INH203      0.0332
     64  H15        7.4180    2.8700   13.8980 H     203  INH203      0.0621
     65  H16        7.6120    4.0380   11.7220 H     203  INH203      0.0654
     66  H17        7.6550   -0.9040   11.8950 H     203  INH203      0.0621
     67  H18        7.8360    0.2520    9.7270 H     203  INH203      0.0654
     68  H19        8.2670    4.7570    9.4380 H     203  INH203      0.0696
     69  H20        7.4240    4.2950    7.9200 H     203  INH203      0.0696
     70  H21        5.7390   -1.5100   16.0310 H     203  INH203      0.0666
     71  H22        6.1580    0.7320   16.5220 H     203  INH203      0.2101
     72  H23        3.2830   -0.6580   14.5650 H     203  INH203      0.0841
     73  H24        3.1560   -0.6900   16.3560 H     203  INH203      0.0841
     74  H25        4.1460   -2.6840   14.6740 H     203  INH203      0.2042
     75  H26        4.4410   -2.8140   17.3140 H     203  INH203      0.0950
     76  H27        2.4210   -4.0940   17.4450 H     203  INH203      0.0327
     77  H28        3.6220   -5.3830   17.0930 H     203  INH203      0.0327
     78  H29        1.5720   -5.1780   15.4580 H     203  INH203      0.0319
     79  H30        3.2070   -5.2480   14.7170 H     203  INH203      0.0319
     80  H31        2.4110   -3.2190   13.7520 H     203  INH203      0.0815
     81  H32        1.4150   -2.8130   15.1910 H     203  INH203      0.0815
     82  H33        5.9850   -4.3580   17.8600 H     203  INH203      0.1496
     83  H34        7.5600   -5.6230   15.6390 H     203  INH203      0.0597
     84  H35        8.6940   -4.0640   18.0400 H     203  INH203      0.0321
     85  H36        9.8280   -2.6940   16.3690 H     203  INH203      0.0266
     86  H37        8.0530   -2.6550   16.1010 H     203  INH203      0.0266
     87  H38        9.8850   -6.2080   17.6280 H     203  INH203      0.0233
     88  H39       10.9070   -4.7920   17.2070 H     203  INH203      0.0233
     89  H40       10.1140   -5.7450   15.9080 H     203  INH203      0.0233
     90  H41        9.2750   -2.8050   14.0010 H     203  INH203      0.0230
     91  H42        8.2900   -4.2780   14.2910 H     203  INH203      0.0230
     92  H43       10.0660   -4.3180   14.5590 H     203  INH203      0.0230
     93  H44        6.9900   -7.6850   16.1610 H     203  INH203      0.1495
     94  H45        6.9870   -8.4540   19.0510 H     203  INH203      0.0597
     95  H46        5.4150  -10.2450   18.5490 H     203  INH203      0.0318
     96  H47        3.4410   -8.9150   17.8600 H     203  INH203      0.0233
     97  H48        4.5310   -7.6090   17.2840 H     203  INH203      0.0233
     98  H49        4.4760   -8.0290   19.0290 H     203  INH203      0.0233
     99  H50        6.2280  -10.8190   16.2810 H     203  INH203      0.0233
    100  H51        5.5010   -9.3060   15.6420 H     203  INH203      0.0233
    101  H52        4.4460  -10.5940   16.3190 H     203  INH203      0.0233
    102  H53        9.3700  -10.9810   18.7040 H     203  INH203      0.1450
    103  H54        8.3300  -10.0520   19.7330 H     203  INH203      0.1450
@<TRIPOS>BOND
     1     1     4    1
     2     1    51    1
     3     1    50    1
     4     1    23    1
     5     2     5   am
     6     2     4    1
     7     2     3    2
     8     4    53    1
     9     4    52    1
    10     5     6    1
    11     5    54    1
    12     6     7    1
    13     6    55    1
    14     6     9    1
    15     7    13   am
    16     7     8    2
    17     9    57    1
    18     9    56    1
    19     9    10    1
    20    10    12   am
    21    10    11    2
    22    12    59    1
    23    12    58    1
    24    13    14    1
    25    13    60    1
    26    14    15    1
    27    14    61    1
    28    14    24    1
    29    15    16    1
    30    15    63    1
    31    15    62    1
    32    16    17   ar
    33    16    19   ar
    34    17    18   ar
    35    17    64    1
    36    18    21   ar
    37    18    65    1
    38    19    66    1
    39    19    20   ar
    40    20    21   ar
    41    20    67    1
    42    21    22    1
    43    22    23    1
    44    23    69    1
    45    23    68    1
    46    24    70    1
    47    24    26    1
    48    24    25    1
    49    25    71    1
    50    26    73    1
    51    26    72    1
    52    26    27    1
    53    27    74    1
    54    27    33    1
    55    27    28    1
    56    28    75    1
    57    28    31    1
    58    28    29    1
    59    29    34   am
    60    29    30    2
    61    31    77    1
    62    31    76    1
    63    31    32    1
    64    32    79    1
    65    32    78    1
    66    32    33    1
    67    33    81    1
    68    33    80    1
    69    34    82    1
    70    34    35    1
    71    35    83    1
    72    35    38    1
    73    35    36    1
    74    36    42   am
    75    36    37    2
    76    38    84    1
    77    38    40    1
    78    38    39    1
    79    39    86    1
    80    39    85    1
    81    39    41    1
    82    40    89    1
    83    40    88    1
    84    40    87    1
    85    41    92    1
    86    41    91    1
    87    41    90    1
    88    42    93    1
    89    42    43    1
    90    43    94    1
    91    43    46    1
    92    43    44    1
    93    44    49   am
    94    44    45    2
    95    46    95    1
    96    46    48    1
    97    46    47    1
    98    47    98    1
    99    47    97    1
   100    47    96    1
   101    48   101    1
   102    48   100    1
   103    48    99    1
   104    49   103    1
   105    49   102    1
