@<TRIPOS>MOLECULE
/tmp/ewbell/vina_1b6j_1b6j_lig/vina/vina2.pdbqt
 59 61 0 0 0
SMALL
GASTEIGER

@<TRIPOS>ATOM
      1  C17        4.7600   -0.0940   14.4010 C.3   203  INH203      0.1670
      2  C8         4.3470   -1.5610   14.5600 C.3   203  INH203      0.1190
      3  N3         5.3870   -2.2790   15.3190 N.am  203  INH203     -0.3520
      4  C5         6.1720   -3.2040   14.7670 C.2   203  INH203      0.2410
      5  H11        5.5070   -2.0640   16.2880 H     203  INH203      0.1630
      6  C4         7.1770   -3.8610   15.7030 C.3   203  INH203      0.1850
      7  O2         6.0710   -3.5670   13.5960 O.2   203  INH203     -0.2710
      8  N1         6.6500   -5.1910   16.0580 N.am  203  INH203     -0.3470
      9  C2         6.6820   -5.6510   17.3040 C.2   203  INH203      0.2180
     10  H5         6.2580   -5.7660   15.3380 H     203  INH203      0.1630
     11  C3         6.0650   -7.0150   17.5470 C.3   203  INH203      0.1050
     12  O1         7.1750   -5.0070   18.2360 O.2   203  INH203     -0.2740
     13  C1         5.0440   -6.9650   18.6820 C.3   203  INH203      0.0360
     14  C16        3.6440   -7.5480   18.3150 C.3   203  INH203      0.1760
     15  O4         3.1410   -7.0480   17.0780 O.3   203  INH203     -0.3510
     16  C15        2.9690   -5.6980   16.7640 C.ar  203  INH203      0.0680
     17  C12        3.1660   -4.6560   17.6690 C.ar  203  INH203      0.0370
     18  C14        2.6820   -5.4000   15.4360 C.ar  203  INH203      0.0370
     19  C11        3.1050   -3.3260   17.2290 C.ar  203  INH203      0.0100
     20  C10        2.8470   -3.0190   15.8920 C.ar  203  INH203     -0.0560
     21  C9         3.0450   -1.6240   15.3710 C.3   203  INH203      0.0660
     22  C13        2.6200   -4.0770   15.0080 C.ar  203  INH203      0.0100
     23  C6         8.5570   -3.9740   15.0620 C.3   203  INH203      0.1370
     24  C7         9.6610   -3.6260   16.0370 C.2   203  INH203      0.2170
     25  N2         9.9780   -4.5580   16.9260 N.am  203  INH203     -0.3700
     26  H10        9.4960   -5.4340   16.9270 H     203  INH203      0.1590
     27  H9        10.7000   -4.3830   17.5960 H     203  INH203      0.1590
     28  O3        10.1720   -2.5080   16.0380 O.2   203  INH203     -0.2740
     29  C18        6.2690    0.0030   14.4850 C.3   203  INH203      0.2690
     30  N4         6.9040    0.0970   13.1670 N.4   203  INH203     -0.0560
     31  H25        6.0950   -0.2310   12.6640 H     203  INH203      0.2810
     32  C23        7.8530   -0.8790   12.6020 C.3   203  INH203      0.2360
     33  C22        8.4150   -0.1330   11.4000 C.3   203  INH203      0.0300
     34  C21        8.4000    1.2910   11.8500 C.3   203  INH203      0.0450
     35  C19        7.0290    1.3930   12.5010 C.3   203  INH203      0.2790
     36  C20        5.9720    1.7300   11.4520 C.2   203  INH203      0.2490
     37  N5         4.9250    2.3900   11.9250 N.am  203  INH203     -0.3460
     38  H33        4.9180    2.6420   12.8920 H     203  INH203      0.1630
     39  O6         6.0770    1.3730   10.2760 O.2   203  INH203     -0.2710
     40  C24        3.7790    2.7660   11.0990 C.3   203  INH203      0.1800
     41  C26        2.4140    2.5500   11.8000 C.3   203  INH203      0.0130
     42  C28        1.3700    3.4940   11.2050 C.3   203  INH203      0.0120
     43  C27        1.9440    1.1040   11.6370 C.3   203  INH203      0.0020
     44  C29        0.7180    0.9640   10.7990 C.3   203  INH203      0.0050
     45  C25        4.0210    4.2530   10.9280 C.2   203  INH203      0.2410
     46  N6         4.2230    4.6720    9.6850 N.am  203  INH203     -0.3460
     47  H44        4.5000    5.6200    9.5270 H     203  INH203      0.1630
     48  O7         4.1470    4.9810   11.9140 O.2   203  INH203     -0.2710
     49  C30        4.0470    3.7750    8.5350 C.3   203  INH203      0.1790
     50  C32        2.9960    4.3270    7.5240 C.3   203  INH203      0.0090
     51  C34        3.0710    5.8500    7.4230 C.3   203  INH203      0.0120
     52  C33        1.5950    3.8870    7.9290 C.3   203  INH203      0.0120
     53  C31        5.3850    3.5300    7.8350 C.2   203  INH203      0.2380
     54  N7         6.4820    3.9140    8.4880 N.am  203  INH203     -0.3680
     55  H54        6.4040    4.3390    9.3910 H     203  INH203      0.1590
     56  H53        7.3830    3.7770    8.0760 H     203  INH203      0.1590
     57  O8         5.4280    3.0230    6.7070 O.2   203  INH203     -0.2710
     58  O5         4.1900    0.6980   15.4540 O.3   203  INH203     -0.3920
     59  H22        3.9830    1.5640   15.1230 H     203  INH203      0.2100
@<TRIPOS>BOND
     1    57    53    2
     2    51    50    1
     3    50    52    1
     4    50    49    1
     5    53    54   am
     6    53    49    1
     7    56    54    1
     8    54    55    1
     9    49    46    1
    10    47    46    1
    11    46    45   am
    12    39    36    2
    13    44    43    1
    14    45    40    1
    15    45    48    2
    16    40    41    1
    17    40    37    1
    18    42    41    1
    19    33    34    1
    20    33    32    1
    21    36    37   am
    22    36    35    1
    23    43    41    1
    24    34    35    1
    25    37    38    1
    26    35    30    1
    27    32    30    1
    28    31    30    1
    29    30    29    1
    30     7     4    2
    31     1    29    1
    32     1     2    1
    33     1    58    1
    34     2     3    1
    35     2    21    1
    36     4     3   am
    37     4     6    1
    38    22    18   ar
    39    22    20   ar
    40    23     6    1
    41    23    24    1
    42    59    58    1
    43     3     5    1
    44    10     8    1
    45    21    20    1
    46    18    16   ar
    47     6     8    1
    48    20    19   ar
    49    24    28    2
    50    24    25   am
    51     8     9   am
    52    16    15    1
    53    16    17   ar
    54    25    26    1
    55    25    27    1
    56    15    14    1
    57    19    17   ar
    58     9    11    1
    59     9    12    2
    60    11    13    1
    61    14    13    1
