@<TRIPOS>MOLECULE
/tmp/ewbell/vina_1b6j_1b6j_lig/vina/vina5.pdbqt
 59 61 0 0 0
SMALL
GASTEIGER

@<TRIPOS>ATOM
      1  C17        7.3790   -1.0810   13.1730 C.3   203  INH203      0.1670
      2  C8         7.9000   -1.8120   14.4140 C.3   203  INH203      0.1190
      3  N3         6.8930   -2.7930   14.8580 N.am  203  INH203     -0.3520
      4  C5         6.2030   -2.6550   15.9910 C.2   203  INH203      0.2410
      5  H11        6.7210   -3.5950   14.2870 H     203  INH203      0.1630
      6  C4         5.2200   -3.7730   16.3050 C.3   203  INH203      0.1850
      7  O2         6.3760   -1.7260   16.7790 O.2   203  INH203     -0.2710
      8  N1         5.8360   -4.6300   17.3340 N.am  203  INH203     -0.3470
      9  C2         5.7950   -5.9570   17.2610 C.2   203  INH203      0.2180
     10  H5         6.2980   -4.2010   18.1110 H     203  INH203      0.1630
     11  C3         6.5080   -6.7250   18.3570 C.3   203  INH203      0.1050
     12  O1         5.2200   -6.5530   16.3450 O.2   203  INH203     -0.2740
     13  C1         7.4800   -7.7480   17.7710 C.3   203  INH203      0.0360
     14  C16        8.9330   -7.6470   18.3290 C.3   203  INH203      0.1760
     15  O4         9.4400   -6.3150   18.3210 O.3   203  INH203     -0.3510
     16  C15        9.5170   -5.4880   17.1970 C.ar  203  INH203      0.0680
     17  C12        9.2060   -5.9020   15.9030 C.ar  203  INH203      0.0370
     18  C14        9.8280   -4.1530   17.4290 C.ar  203  INH203      0.0370
     19  C11        9.1790   -4.9670   14.8580 C.ar  203  INH203      0.0100
     20  C10        9.4600   -3.6190   15.0870 C.ar  203  INH203     -0.0560
     21  C9         9.1730   -2.5840   14.0370 C.3   203  INH203      0.0660
     22  C13        9.8020   -3.2320   16.3860 C.ar  203  INH203      0.0100
     23  C6         3.8770   -3.2270   16.7830 C.3   203  INH203      0.1370
     24  C7         2.7760   -3.4860   15.7780 C.2   203  INH203      0.2170
     25  N2         2.6120   -4.7440   15.3920 N.am  203  INH203     -0.3700
     26  H10        3.2000   -5.4620   15.7630 H     203  INH203      0.1590
     27  H9         1.8990   -4.9740   14.7290 H     203  INH203      0.1590
     28  O3         2.1270   -2.5560   15.3010 O.2   203  INH203     -0.2740
     29  C18        6.9830    0.3270   13.5630 C.3   203  INH203      0.2690
     30  N4         5.5840    0.6300   13.2460 N.4   203  INH203     -0.0560
     31  H25        5.6910    1.6270   13.3540 H     203  INH203      0.2810
     32  C23        4.4460    0.4890   14.1710 C.3   203  INH203      0.2360
     33  C22        3.2480    0.6230   13.2430 C.3   203  INH203      0.0300
     34  C21        3.7420    0.0250   11.9660 C.3   203  INH203      0.0450
     35  C19        5.1290    0.6380   11.8560 C.3   203  INH203      0.2790
     36  C20        5.0490    2.0000   11.1680 C.2   203  INH203      0.2490
     37  N5         5.9010    2.1550   10.1650 N.am  203  INH203     -0.3460
     38  H33        6.4890    1.3860    9.9170 H     203  INH203      0.1630
     39  O6         4.2820    2.8850   11.5530 O.2   203  INH203     -0.2710
     40  C24        6.0210    3.3980    9.4060 C.3   203  INH203      0.1800
     41  C26        7.4300    4.0370    9.4850 C.3   203  INH203      0.0130
     42  C28        7.5940    5.0720    8.3730 C.3   203  INH203      0.0120
     43  C27        7.6430    4.7120   10.8420 C.3   203  INH203      0.0020
     44  C29        8.6670    5.7960   10.8170 C.3   203  INH203      0.0050
     45  C25        5.7800    2.8990    7.9940 C.2   203  INH203      0.2410
     46  N6         4.7490    3.4360    7.3540 N.am  203  INH203     -0.3460
     47  H44        4.4750    3.0630    6.4670 H     203  INH203      0.1630
     48  O7         6.4370    1.9590    7.5450 O.2   203  INH203     -0.2710
     49  C30        4.0000    4.5670    7.9180 C.3   203  INH203      0.1790
     50  C32        3.8150    5.7150    6.8810 C.3   203  INH203      0.0090
     51  C34        2.5030    6.4650    7.1110 C.3   203  INH203      0.0120
     52  C33        3.8700    5.1580    5.4640 C.3   203  INH203      0.0120
     53  C31        2.6420    4.1010    8.4480 C.2   203  INH203      0.2380
     54  N7         2.3390    4.4420    9.7010 N.am  203  INH203     -0.3680
     55  H54        2.9880    4.9760   10.2450 H     203  INH203      0.1590
     56  H53        1.4640    4.1640   10.0980 H     203  INH203      0.1590
     57  O8         1.8850    3.4220    7.7450 O.2   203  INH203     -0.2710
     58  O5         6.2250   -1.7550   12.6480 O.3   203  INH203     -0.3920
     59  H22        5.4410   -1.2800   12.8960 H     203  INH203      0.2100
@<TRIPOS>BOND
     1    52    50    1
     2    47    46    1
     3    50    51    1
     4    50    49    1
     5    46    49    1
     6    46    45   am
     7    48    45    2
     8    57    53    2
     9    49    53    1
    10    45    40    1
    11    42    41    1
    12    53    54   am
    13    40    41    1
    14    40    37    1
    15    41    43    1
    16    54    56    1
    17    54    55    1
    18    38    37    1
    19    37    36   am
    20    44    43    1
    21    36    39    2
    22    36    35    1
    23    35    34    1
    24    35    30    1
    25    34    33    1
    26    58    59    1
    27    58     1    1
    28     1    29    1
    29     1     2    1
    30    33    32    1
    31    30    31    1
    32    30    29    1
    33    30    32    1
    34    21     2    1
    35    21    20    1
    36     5     3    1
    37     2     3    1
    38    27    25    1
    39     3     4   am
    40    19    20   ar
    41    19    17   ar
    42    20    22   ar
    43    28    24    2
    44    25    26    1
    45    25    24   am
    46    24    23    1
    47    17    16   ar
    48     4     6    1
    49     4     7    2
    50     6    23    1
    51     6     8    1
    52    12     9    2
    53    22    18   ar
    54    16    18   ar
    55    16    15    1
    56     9     8   am
    57     9    11    1
    58     8    10    1
    59    13    14    1
    60    13    11    1
    61    15    14    1
