@<TRIPOS>MOLECULE
/tmp/ewbell/vina_1b6j_1b6j_lig/vina/vina3.pdbqt
 59 61 0 0 0
SMALL
GASTEIGER

@<TRIPOS>ATOM
      1  C17        8.7960   -6.1390   17.7690 C.3   203  INH203      0.1670
      2  C8         8.2160   -7.4800   18.2260 C.3   203  INH203      0.1190
      3  N3         6.9990   -7.7730   17.4480 N.am  203  INH203     -0.3520
      4  C5         5.7790   -7.7660   17.9870 C.2   203  INH203      0.2410
      5  H11        7.0920   -7.9870   16.4750 H     203  INH203      0.1630
      6  C4         4.6370   -8.1120   17.0410 C.3   203  INH203      0.1850
      7  O2         5.5680   -7.5580   19.1810 O.2   203  INH203     -0.2710
      8  N1         4.2400   -9.5060   17.3160 N.am  203  INH203     -0.3470
      9  C2         3.9980  -10.3740   16.3390 C.2   203  INH203      0.2180
     10  H5         4.1500   -9.8070   18.2660 H     203  INH203      0.1630
     11  C3         3.6460  -11.7890   16.7530 C.3   203  INH203      0.1050
     12  O1         4.0650  -10.0630   15.1450 O.2   203  INH203     -0.2740
     13  C1         4.5360  -12.8090   16.0450 C.3   203  INH203      0.0360
     14  C16        5.2470  -13.8150   17.0030 C.3   203  INH203      0.1760
     15  O4         5.8820  -13.1770   18.1080 O.3   203  INH203     -0.3510
     16  C15        6.8400  -12.1640   18.0120 C.ar  203  INH203      0.0680
     17  C12        7.3830  -11.7170   16.8090 C.ar  203  INH203      0.0370
     18  C14        7.1760  -11.5130   19.1940 C.ar  203  INH203      0.0370
     19  C11        8.2340  -10.6020   16.7970 C.ar  203  INH203      0.0100
     20  C10        8.5530   -9.9250   17.9760 C.ar  203  INH203     -0.0560
     21  C9         9.2380   -8.5880   17.9330 C.3   203  INH203      0.0660
     22  C13        8.0240  -10.4100   19.1750 C.ar  203  INH203      0.0100
     23  C6         3.4540   -7.1640   17.2130 C.3   203  INH203      0.1370
     24  C7         2.7880   -7.3350   18.5610 C.2   203  INH203      0.2170
     25  N2         2.9560   -6.3480   19.4310 N.am  203  INH203     -0.3700
     26  H10        3.4990   -5.5470   19.1810 H     203  INH203      0.1590
     27  H9         2.5390   -6.4070   20.3390 H     203  INH203      0.1590
     28  O3         2.1900   -8.3720   18.8420 O.2   203  INH203     -0.2740
     29  C18        8.9160   -6.1440   16.2600 C.3   203  INH203      0.2690
     30  N4         9.0760   -4.7990   15.6990 N.4   203  INH203     -0.0560
     31  H25        8.5920   -5.0110   14.8410 H     203  INH203      0.2810
     32  C23       10.3000   -4.2740   15.0690 C.3   203  INH203      0.2360
     33  C22       10.0090   -2.7830   14.9750 C.3   203  INH203      0.0300
     34  C21        9.1650   -2.5280   16.1810 C.3   203  INH203      0.0450
     35  C19        8.2080   -3.7090   16.1420 C.3   203  INH203      0.2790
     36  C20        7.0080   -3.3830   15.2550 C.2   203  INH203      0.2490
     37  N5         6.3080   -2.3300   15.6490 N.am  203  INH203     -0.3460
     38  H33        6.6230   -1.8200   16.4480 H     203  INH203      0.1630
     39  O6         6.7040   -4.0780   14.2820 O.2   203  INH203     -0.2710
     40  C24        5.0960   -1.8770   14.9680 C.3   203  INH203      0.1800
     41  C26        3.7910   -2.4230   15.6010 C.3   203  INH203      0.0130
     42  C28        2.5840   -1.7030   15.0040 C.3   203  INH203      0.0120
     43  C27        3.6580   -3.9270   15.3570 C.3   203  INH203      0.0020
     44  C29        2.3170   -4.3350   14.8470 C.3   203  INH203      0.0050
     45  C25        5.1740   -0.3810   15.2010 C.2   203  INH203      0.2410
     46  N6         5.3980    0.3660   14.1260 N.am  203  INH203     -0.3460
     47  H44        5.5730    1.3440   14.2390 H     203  INH203      0.1630
     48  O7         5.1570    0.0730   16.3460 O.2   203  INH203     -0.2710
     49  C30        5.3950   -0.2130   12.7760 C.3   203  INH203      0.1790
     50  C32        4.3400    0.4710   11.8560 C.3   203  INH203      0.0090
     51  C34        3.9770    1.8650   12.3670 C.3   203  INH203      0.0120
     52  C33        3.0940   -0.3990   11.7470 C.3   203  INH203      0.0120
     53  C31        6.7880   -0.1250   12.1500 C.2   203  INH203      0.2380
     54  N7         7.7530   -0.8380   12.7320 N.am  203  INH203     -0.3680
     55  H54        7.5460   -1.3950   13.5380 H     203  INH203      0.1590
     56  H53        8.6820   -0.8170   12.3630 H     203  INH203      0.1590
     57  O8         6.9980    0.5970   11.1680 O.2   203  INH203     -0.2710
     58  O5        10.1030   -5.9450   18.3330 O.3   203  INH203     -0.3920
     59  H22       10.1010   -5.1640   18.8740 H     203  INH203      0.2100
@<TRIPOS>BOND
     1    57    53    2
     2    52    50    1
     3    50    51    1
     4    50    49    1
     5    53    54   am
     6    53    49    1
     7    56    54    1
     8    54    55    1
     9    49    46    1
    10    46    47    1
    11    46    45   am
    12    39    36    2
    13    31    30    1
    14    44    43    1
    15    40    45    1
    16    40    41    1
    17    40    37    1
    18    33    32    1
    19    33    34    1
    20    42    41    1
    21    32    30    1
    22    12     9    2
    23    45    48    2
    24    36    37   am
    25    36    35    1
    26    43    41    1
    27    37    38    1
    28    30    35    1
    29    30    29    1
    30    13    11    1
    31    13    14    1
    32    35    34    1
    33    29     1    1
    34     9    11    1
    35     9     8   am
    36     5     3    1
    37    19    17   ar
    38    19    20   ar
    39    17    16   ar
    40    14    15    1
    41     6    23    1
    42     6     8    1
    43     6     4    1
    44    23    24    1
    45     8    10    1
    46     3     4   am
    47     3     2    1
    48     1     2    1
    49     1    58    1
    50    21    20    1
    51    21     2    1
    52    20    22   ar
    53     4     7    2
    54    16    15    1
    55    16    18   ar
    56    58    59    1
    57    24    28    2
    58    24    25   am
    59    22    18   ar
    60    26    25    1
    61    25    27    1
