@<TRIPOS>MOLECULE
/tmp/ewbell/vina_1b6j_1b6j_lig/vina/vina1.pdbqt
 59 61 0 0 0
SMALL
GASTEIGER

@<TRIPOS>ATOM
      1  C17        4.6940   -0.1550   15.3790 C.3   203  INH203      0.1670
      2  C8         5.3510    0.0340   14.0080 C.3   203  INH203      0.1190
      3  N3         4.6290    1.0810   13.2640 N.am  203  INH203     -0.3520
      4  C5         3.8920    0.8200   12.1840 C.2   203  INH203      0.2410
      5  H11        4.6960    2.0280   13.5810 H     203  INH203      0.1630
      6  C4         3.2330    2.0250   11.5270 C.3   203  INH203      0.1850
      7  O2         3.7840   -0.3030   11.6940 O.2   203  INH203     -0.2710
      8  N1         4.0230    2.3640   10.3290 N.am  203  INH203     -0.3470
      9  C2         4.3410    3.6190   10.0280 C.2   203  INH203      0.2180
     10  H5         4.3280    1.6270    9.7240 H     203  INH203      0.1630
     11  C3         5.1970    3.8310    8.7950 C.3   203  INH203      0.1050
     12  O1         3.9750    4.5780   10.7150 O.2   203  INH203     -0.2740
     13  C1         6.4250    4.6810    9.1160 C.3   203  INH203      0.0360
     14  C16        7.7800    4.0460    8.6750 C.3   203  INH203      0.1760
     15  O4         7.9130    2.6840    9.0770 O.3   203  INH203     -0.3510
     16  C15        7.8020    2.2160   10.3880 C.ar  203  INH203      0.0680
     17  C12        7.6540    3.0430   11.5010 C.ar  203  INH203      0.0370
     18  C14        7.7370    0.8370   10.5520 C.ar  203  INH203      0.0370
     19  C11        7.4120    2.4810   12.7630 C.ar  203  INH203      0.0100
     20  C10        7.3150    1.0980   12.9300 C.ar  203  INH203     -0.0560
     21  C9         6.7950    0.5150   14.2140 C.3   203  INH203      0.0660
     22  C13        7.4990    0.2870   11.8080 C.ar  203  INH203      0.0100
     23  C6         1.7790    1.7440   11.1600 C.3   203  INH203      0.1370
     24  C7         0.8490    2.8130   11.6890 C.2   203  INH203      0.2170
     25  N2        -0.0800    2.4160   12.5490 N.am  203  INH203     -0.3700
     26  H10       -0.1360    1.4540   12.8150 H     203  INH203      0.1590
     27  H9        -0.7230    3.0800   12.9320 H     203  INH203      0.1590
     28  O3         0.9180    3.9700   11.2760 O.2   203  INH203     -0.2740
     29  C18        5.1380   -1.4810   15.9580 C.3   203  INH203      0.2690
     30  N4         4.3200   -2.6050   15.4920 N.4   203  INH203     -0.0560
     31  H25        5.1010   -3.1290   15.1300 H     203  INH203      0.2810
     32  C23        3.5220   -2.6280   14.2530 C.3   203  INH203      0.2360
     33  C22        2.6580   -3.8660   14.4410 C.3   203  INH203      0.0300
     34  C21        2.4440   -3.9080   15.9180 C.3   203  INH203      0.0450
     35  C19        3.8410   -3.6110   16.4400 C.3   203  INH203      0.2790
     36  C20        4.6520   -4.9020   16.5370 C.2   203  INH203      0.2490
     37  N5         5.8330   -4.7620   17.1210 N.am  203  INH203     -0.3460
     38  H33        6.0850   -3.8620   17.4750 H     203  INH203      0.1630
     39  O6         4.2470   -5.9680   16.0680 O.2   203  INH203     -0.2710
     40  C24        6.7840   -5.8610   17.2720 C.3   203  INH203      0.1800
     41  C26        8.2650   -5.4080   17.2320 C.3   203  INH203      0.0130
     42  C28        9.1040   -6.4410   16.4830 C.3   203  INH203      0.0120
     43  C27        8.3970   -4.0490   16.5410 C.3   203  INH203      0.0020
     44  C29        9.7460   -3.8060   15.9520 C.3   203  INH203      0.0050
     45  C25        6.4490   -6.3440   18.6700 C.2   203  INH203      0.2410
     46  N6         6.1700   -7.6370   18.7890 N.am  203  INH203     -0.3460
     47  H44        5.8310   -7.9850   19.6630 H     203  INH203      0.1630
     48  O7         6.3240   -5.5390   19.5930 O.2   203  INH203     -0.2710
     49  C30        6.3470   -8.5670   17.6660 C.3   203  INH203      0.1790
     50  C32        7.3280   -9.7250   18.0210 C.3   203  INH203      0.0090
     51  C34        8.6140   -9.1890   18.6490 C.3   203  INH203      0.0120
     52  C33        7.6420  -10.5480   16.7790 C.3   203  INH203      0.0120
     53  C31        4.9970   -9.1290   17.2150 C.2   203  INH203      0.2380
     54  N7         4.5920   -8.8030   15.9880 N.am  203  INH203     -0.3680
     55  H54        5.1640   -8.2170   15.4120 H     203  INH203      0.1590
     56  H53        3.7170   -9.1430   15.6430 H     203  INH203      0.1590
     57  O8         4.3160   -9.8290   17.9740 O.2   203  INH203     -0.2710
     58  O5         3.2640   -0.1660   15.2460 O.3   203  INH203     -0.3920
     59  H22        2.9020    0.6150   15.6490 H     203  INH203      0.2100
@<TRIPOS>BOND
     1    14    15    1
     2    14    13    1
     3    11    13    1
     4    11     9    1
     5    15    16    1
     6    10     8    1
     7     9     8   am
     8     9    12    2
     9     8     6    1
    10    16    18   ar
    11    16    17   ar
    12    18    22   ar
    13    23     6    1
    14    23    24    1
    15    28    24    2
    16    17    19   ar
    17     6     4    1
    18    24    25   am
    19     7     4    2
    20    22    20   ar
    21     4     3   am
    22    25    26    1
    23    25    27    1
    24    19    20   ar
    25    20    21    1
    26     3     5    1
    27     3     2    1
    28     2    21    1
    29     2     1    1
    30    32    33    1
    31    32    30    1
    32    33    34    1
    33    31    30    1
    34    58     1    1
    35    58    59    1
    36     1    29    1
    37    55    54    1
    38    30    29    1
    39    30    35    1
    40    56    54    1
    41    34    35    1
    42    44    43    1
    43    54    53   am
    44    39    36    2
    45    35    36    1
    46    42    41    1
    47    36    37   am
    48    43    41    1
    49    52    50    1
    50    37    40    1
    51    37    38    1
    52    53    49    1
    53    53    57    2
    54    41    40    1
    55    40    45    1
    56    49    50    1
    57    49    46    1
    58    50    51    1
    59    45    46   am
    60    45    48    2
    61    46    47    1
