@<TRIPOS>MOLECULE
/tmp/ewbell/vina_1b6j_1b6j_lig/vina/vina4.pdbqt
 59 61 0 0 0
SMALL
GASTEIGER

@<TRIPOS>ATOM
      1  C17        6.6170   -5.7780   17.8430 C.3   203  INH203      0.1670
      2  C8         6.1130   -7.1050   17.2660 C.3   203  INH203      0.1190
      3  N3         6.4780   -8.2020   18.1800 N.am  203  INH203     -0.3520
      4  C5         7.3880   -9.1260   17.8710 C.2   203  INH203      0.2410
      5  H11        6.0240   -8.2560   19.0700 H     203  INH203      0.1630
      6  C4         7.6260  -10.1980   18.9250 C.3   203  INH203      0.1850
      7  O2         7.9680   -9.1680   16.7860 O.2   203  INH203     -0.2710
      8  N1         6.9230  -11.4170   18.4840 N.am  203  INH203     -0.3470
      9  C2         6.1990  -12.1530   19.3220 C.2   203  INH203      0.2180
     10  H5         6.9920  -11.6990   17.5270 H     203  INH203      0.1630
     11  C3         5.4860  -13.3560   18.7350 C.3   203  INH203      0.1050
     12  O1         6.0910  -11.8790   20.5220 O.2   203  INH203     -0.2740
     13  C1         4.0000  -13.3420   19.0880 C.3   203  INH203      0.0360
     14  C16        3.0470  -13.4830   17.8600 C.3   203  INH203      0.1760
     15  O4         3.3840  -12.6040   16.7900 O.3   203  INH203     -0.3510
     16  C15        3.4970  -11.2150   16.8940 C.ar  203  INH203      0.0680
     17  C12        3.1850  -10.4910   18.0440 C.ar  203  INH203      0.0370
     18  C14        4.0510  -10.5540   15.8040 C.ar  203  INH203      0.0370
     19  C11        3.4600   -9.1180   18.1020 C.ar  203  INH203      0.0100
     20  C10        4.0450   -8.4520   17.0230 C.ar  203  INH203     -0.0560
     21  C9         4.5810   -7.0570   17.1790 C.3   203  INH203      0.0660
     22  C13        4.3190   -9.1890   15.8680 C.ar  203  INH203      0.0100
     23  C6         9.1130  -10.4710   19.1290 C.3   203  INH203      0.1370
     24  C7         9.5580  -11.7260   18.4120 C.2   203  INH203      0.2170
     25  N2         9.9370  -11.5820   17.1490 N.am  203  INH203     -0.3700
     26  H10        9.9190  -10.6790   16.7210 H     203  INH203      0.1590
     27  H9        10.2410  -12.3780   16.6250 H     203  INH203      0.1590
     28  O3         9.4950  -12.8240   18.9640 O.2   203  INH203     -0.2740
     29  C18        8.1240   -5.7280   17.7140 C.3   203  INH203      0.2690
     30  N4         8.5670   -4.9800   16.5330 N.4   203  INH203     -0.0560
     31  H25        7.8680   -5.3720   15.9220 H     203  INH203      0.2810
     32  C23        9.7270   -5.3190   15.6900 C.3   203  INH203      0.2360
     33  C22        9.8980   -4.0650   14.8450 C.3   203  INH203      0.0300
     34  C21        9.4550   -2.9750   15.7660 C.3   203  INH203      0.0450
     35  C19        8.1950   -3.5750   16.3700 C.3   203  INH203      0.2790
     36  C20        6.9930   -3.2840   15.4740 C.2   203  INH203      0.2490
     37  N5         6.2790   -2.2310   15.8450 N.am  203  INH203     -0.3460
     38  H33        6.5870   -1.7010   16.6340 H     203  INH203      0.1630
     39  O6         6.6990   -4.0020   14.5160 O.2   203  INH203     -0.2710
     40  C24        5.0620   -1.8080   15.1530 C.3   203  INH203      0.1800
     41  C26        3.7610   -2.2790   15.8500 C.3   203  INH203      0.0130
     42  C28        2.5470   -1.8350   15.0350 C.3   203  INH203      0.0120
     43  C27        3.7440   -3.8010   15.9980 C.3   203  INH203      0.0020
     44  C29        2.9610   -4.4980   14.9360 C.3   203  INH203      0.0050
     45  C25        5.1720   -0.3000   15.2700 C.2   203  INH203      0.2410
     46  N6         5.4440    0.3530   14.1460 N.am  203  INH203     -0.3460
     47  H44        5.6410    1.3330   14.1860 H     203  INH203      0.1630
     48  O7         5.1350    0.2440   16.3740 O.2   203  INH203     -0.2710
     49  C30        5.4640   -0.3310   12.8470 C.3   203  INH203      0.1790
     50  C32        4.4890    0.3340   11.8280 C.3   203  INH203      0.0090
     51  C34        4.3250    1.8270   12.1100 C.3   203  INH203      0.0120
     52  C33        3.1370   -0.3670   11.8580 C.3   203  INH203      0.0120
     53  C31        6.8840   -0.3700   12.2810 C.2   203  INH203      0.2380
     54  N7         7.8400   -0.8270   13.0910 N.am  203  INH203     -0.3680
     55  H54        7.6090   -1.1220   14.0190 H     203  INH203      0.1590
     56  H53        8.7860   -0.8740   12.7720 H     203  INH203      0.1590
     57  O8         7.1220    0.0290   11.1340 O.2   203  INH203     -0.2710
     58  O5         6.2700   -5.6780   19.2330 O.3   203  INH203     -0.3920
     59  H22        7.0480   -5.4770   19.7390 H     203  INH203      0.2100
@<TRIPOS>BOND
     1    57    53    2
     2    50    52    1
     3    50    51    1
     4    50    49    1
     5    53    49    1
     6    53    54   am
     7    56    54    1
     8    49    46    1
     9    54    55    1
    10    46    47    1
    11    46    45   am
    12    39    36    2
    13    33    32    1
    14    33    34    1
    15    44    43    1
    16    42    41    1
    17    40    45    1
    18    40    37    1
    19    40    41    1
    20    45    48    2
    21    36    37   am
    22    36    35    1
    23    32    30    1
    24    34    35    1
    25    18    22   ar
    26    18    16   ar
    27    37    38    1
    28    41    43    1
    29    22    20   ar
    30    31    30    1
    31    35    30    1
    32    30    29    1
    33    27    25    1
    34    26    25    1
    35     7     4    2
    36    15    16    1
    37    15    14    1
    38    16    17   ar
    39    20    21    1
    40    20    19   ar
    41    25    24   am
    42    21     2    1
    43     2     1    1
    44     2     3    1
    45    10     8    1
    46    29     1    1
    47     1    58    1
    48    14    13    1
    49     4     3   am
    50     4     6    1
    51    17    19   ar
    52     3     5    1
    53    24    28    2
    54    24    23    1
    55     8     6    1
    56     8     9   am
    57    11    13    1
    58    11     9    1
    59     6    23    1
    60    58    59    1
    61     9    12    2
