@<TRIPOS>MOLECULE
./ligand/2il2_lig.pdb
 82 86 0 0 0
SMALL
GASTEIGER

@<TRIPOS>ATOM
      1  N1       -56.9420  -18.1290  -35.1670 N.ar  2041  INH2041    -0.1993
      2  N2       -55.9500  -20.1930  -34.7420 N.pl3 2041  INH2041    -0.3272
      3  C1       -56.4020  -18.6700  -32.8460 C.ar  2041  INH2041     0.0433
      4  C2       -56.9640  -16.8510  -31.0380 C.3   2041  INH2041    -0.0124
      5  C3       -55.8280  -15.8800  -30.8180 C.3   2041  INH2041    -0.0598
      6  C4       -56.5010  -20.3830  -30.9480 C.ar  2041  INH2041    -0.0503
      7  C5       -55.7560  -21.1320  -30.0410 C.ar  2041  INH2041    -0.0175
      8  C6       -53.6610  -20.2180  -30.8950 C.ar  2041  INH2041     0.0789
      9  C7       -51.4960  -22.5700  -28.2630 C.3   2041  INH2041    -0.0164
     10  C8       -51.5760  -21.0500  -30.1630 C.2   2041  INH2041     0.2632
     11  C9       -51.4790  -17.7810  -31.0540 C.3   2041  INH2041    -0.0132
     12  C10      -56.0640  -20.5130  -36.1470 C.3   2041  INH2041     0.0246
     13  C11      -54.9800  -21.4490  -36.6400 C.3   2041  INH2041     0.0330
     14  C12      -52.4610  -23.3440  -30.4760 C.3   2041  INH2041    -0.0164
     15  C13      -50.9720  -25.8590  -35.9970 C.ar  2041  INH2041    -0.0540
     16  C14      -52.0240  -25.4720  -38.2060 C.ar  2041  INH2041    -0.0178
     17  C15      -51.3260  -27.7000  -37.5830 C.ar  2041  INH2041    -0.0612
     18  O1       -51.9700  -20.7280  -35.9970 O.2   2041  INH2041    -0.1530
     19  S1       -52.4220  -21.1570  -37.3030 S.O2  2041  INH2041     0.0585
     20  O2       -51.6920  -20.5020  -38.3550 O.2   2041  INH2041    -0.1530
     21  C16      -52.2580  -22.7310  -37.5480 C.ar  2041  INH2041     0.1058
     22  C17      -51.6700  -23.5920  -36.6010 C.ar  2041  INH2041    -0.0276
     23  C18      -51.5450  -24.9560  -36.8900 C.ar  2041  INH2041    -0.0160
     24  C19      -52.6990  -23.2230  -38.7820 C.ar  2041  INH2041    -0.0348
     25  C20      -52.5860  -24.5740  -39.1090 C.ar  2041  INH2041    -0.0522
     26  C21      -51.9000  -26.8330  -38.5150 C.ar  2041  INH2041    -0.0540
     27  C22      -50.8680  -27.2180  -36.3450 C.ar  2041  INH2041    -0.0612
     28  N3       -53.9650  -20.7380  -37.3890 N.3   2041  INH2041    -0.1885
     29  C23      -56.4250  -19.0180  -34.2910 C.ar  2041  INH2041     0.1319
     30  C24      -56.9430  -17.3500  -32.4630 C.ar  2041  INH2041     0.0556
     31  N4       -57.4290  -16.5700  -33.4550 N.ar  2041  INH2041    -0.2190
     32  C25      -57.4150  -16.9350  -34.7530 C.ar  2041  INH2041     0.2145
     33  N5       -57.9190  -16.0710  -35.6560 N.pl3 2041  INH2041    -0.3274
     34  C26      -55.8070  -19.5530  -31.8250 C.ar  2041  INH2041    -0.0109
     35  C27      -54.4180  -19.4760  -31.7980 C.ar  2041  INH2041    -0.0288
     36  N6       -52.2380  -20.1460  -30.8900 N.am  2041  INH2041    -0.2649
     37  C28      -51.4910  -19.1560  -31.7090 C.3   2041  INH2041     0.0221
     38  C29      -50.8590  -16.7870  -32.0420 C.3   2041  INH2041     0.0487
     39  O3       -50.7030  -15.5080  -31.4540 O.3   2041  INH2041    -0.3829
     40  C30      -50.1970  -14.5020  -32.3370 C.3   2041  INH2041     0.0364
     41  O4       -50.3690  -21.0000  -30.0680 O.2   2041  INH2041    -0.2709
     42  C31      -52.3160  -22.1850  -29.4840 C.3   2041  INH2041     0.1806
     43  O5       -53.6390  -21.8010  -29.0990 O.3   2041  INH2041    -0.4752
     44  C32      -54.3530  -21.0550  -30.0090 C.ar  2041  INH2041     0.1433
     45  H1       -55.5090  -20.8590  -34.0920 H     2041  INH2041     0.1475
     46  H2       -57.9210  -16.3440  -30.8430 H     2041  INH2041     0.0326
     47  H3       -56.8540  -17.7030  -30.3510 H     2041  INH2041     0.0326
     48  H4       -55.8490  -15.5210  -29.7790 H     2041  INH2041     0.0233
     49  H5       -55.9370  -15.0270  -31.5030 H     2041  INH2041     0.0233
     50  H6       -54.8710  -16.3860  -31.0120 H     2041  INH2041     0.0233
     51  H7       -57.5830  -20.4440  -30.9710 H     2041  INH2041     0.0625
     52  H8       -56.2680  -21.7870  -29.3460 H     2041  INH2041     0.0655
     53  H9       -51.9940  -23.3950  -27.7320 H     2041  INH2041     0.0273
     54  H10      -51.4080  -21.7030  -27.5920 H     2041  INH2041     0.0273
     55  H11      -50.4930  -22.8910  -28.5810 H     2041  INH2041     0.0273
     56  H12      -50.8800  -17.8130  -30.1320 H     2041  INH2041     0.0303
     57  H13      -52.5070  -17.4740  -30.8130 H     2041  INH2041     0.0303
     58  H14      -56.0060  -19.5780  -36.7230 H     2041  INH2041     0.0475
     59  H15      -57.0410  -20.9900  -36.3180 H     2041  INH2041     0.0475
     60  H16      -55.4350  -22.2120  -37.2890 H     2041  INH2041     0.0457
     61  H17      -54.5090  -21.9380  -35.7740 H     2041  INH2041     0.0457
     62  H18      -53.0600  -23.0160  -31.3380 H     2041  INH2041     0.0273
     63  H19      -52.9620  -24.1890  -29.9820 H     2041  INH2041     0.0273
     64  H20      -51.4650  -23.6590  -30.8200 H     2041  INH2041     0.0273
     65  H21      -50.6070  -25.5150  -35.0360 H     2041  INH2041     0.0624
     66  H22      -51.2330  -28.7540  -37.8170 H     2041  INH2041     0.0618
     67  H23      -51.3160  -23.2010  -35.6540 H     2041  INH2041     0.0643
     68  H24      -53.1380  -22.5390  -39.4990 H     2041  INH2041     0.0637
     69  H25      -52.9380  -24.9270  -40.0720 H     2041  INH2041     0.0624
     70  H26      -52.2470  -27.2100  -39.4700 H     2041  INH2041     0.0624
     71  H27      -50.4230  -27.9110  -35.6400 H     2041  INH2041     0.0618
     72  H28      -54.2330  -19.9700  -37.9710 H     2041  INH2041     0.1481
     73  H29      -57.9250  -16.3160  -36.6560 H     2041  INH2041     0.1452
     74  H30      -58.2990  -15.1650  -35.3460 H     2041  INH2041     0.1452
     75  H31      -53.9120  -18.8210  -32.4980 H     2041  INH2041     0.0643
     76  H32      -50.4540  -19.5030  -31.8300 H     2041  INH2041     0.0469
     77  H33      -51.9690  -19.0770  -32.6970 H     2041  INH2041     0.0469
     78  H34      -51.5140  -16.7000  -32.9210 H     2041  INH2041     0.0560
     79  H35      -49.8730  -17.1600  -32.3550 H     2041  INH2041     0.0560
     80  H36      -50.1100  -13.5490  -31.7950 H     2041  INH2041     0.0523
     81  H37      -50.8850  -14.3800  -33.1860 H     2041  INH2041     0.0523
     82  H38      -49.2070  -14.8040  -32.7080 H     2041  INH2041     0.0523
@<TRIPOS>BOND
     1    69    25    1
     2    68    24    1
     3    70    26    1
     4    25    24   ar
     5    25    16   ar
     6    24    21   ar
     7    26    16   ar
     8    26    17   ar
     9    20    19    2
    10    16    23   ar
    11    72    28    1
    12    66    17    1
    13    17    27   ar
    14    21    19    1
    15    21    22   ar
    16    28    19    1
    17    28    13    1
    18    19    18    2
    19    60    13    1
    20    23    22   ar
    21    23    15   ar
    22    58    12    1
    23    73    33    1
    24    13    12    1
    25    13    61    1
    26    22    67    1
    27    27    15   ar
    28    27    71    1
    29    59    12    1
    30    12     2    1
    31    15    65    1
    32    33    74    1
    33    33    32    1
    34     1    32   ar
    35     1    29   ar
    36    32    31   ar
    37     2    29    1
    38     2    45    1
    39    29     3   ar
    40    31    30   ar
    41    81    40    1
    42    78    38    1
    43     3    30   ar
    44     3    34    1
    45    82    40    1
    46    77    37    1
    47    75    35    1
    48    30     4    1
    49    79    38    1
    50    40    80    1
    51    40    39    1
    52    38    39    1
    53    38    11    1
    54    76    37    1
    55    34    35   ar
    56    34     6   ar
    57    35     8   ar
    58    37    11    1
    59    37    36    1
    60    49     5    1
    61    62    14    1
    62    11    57    1
    63    11    56    1
    64     4    46    1
    65     4     5    1
    66     4    47    1
    67    50     5    1
    68    51     6    1
    69     6     7   ar
    70     8    36    1
    71     8    44   ar
    72    36    10   am
    73    64    14    1
    74     5    48    1
    75    14    63    1
    76    14    42    1
    77    10    41    2
    78    10    42    1
    79     7    44   ar
    80     7    52    1
    81    44    43    1
    82    42    43    1
    83    42     9    1
    84    55     9    1
    85     9    53    1
    86     9    54    1
