@<TRIPOS>MOLECULE
/tmp/ewbell/vina_2il2_2il2_lig/vina/vina2.pdbqt
 50 54 0 0 0
SMALL
GASTEIGER

@<TRIPOS>ATOM
      1  N1       -51.8670  -19.8850  -32.2970 N.pl3 2041  INH2041    -0.1760
      2  H1       -52.1020  -19.1470  -32.9620 H     2041  INH2041     0.1860
      3  N2       -52.8390  -21.4430  -33.7300 N.pl3 2041  INH2041    -0.3730
      4  C1       -51.8780  -22.2230  -31.5880 C.2   2041  INH2041     0.0420
      5  C23      -52.2080  -21.1620  -32.5750 C.2   2041  INH2041     0.1300
      6  C24      -51.1780  -21.8030  -30.3570 C.3   2041  INH2041     0.0410
      7  N4       -50.9060  -20.4850  -30.2200 N.3   2041  INH2041    -0.1950
      8  H4       -50.4410  -20.1710  -29.3690 H     2041  INH2041     0.1840
      9  C25      -51.2220  -19.5670  -31.1560 C.3   2041  INH2041     0.6770
     10  N5       -50.8930  -18.2820  -30.9140 N.3   2041  INH2041    -0.2340
     11  H1       -53.1040  -22.4130  -33.9540 H     2041  INH2041     0.1610
     12  H29      -51.1190  -17.5540  -31.6060 H     2041  INH2041     0.1740
     13  H30      -50.4170  -18.0290  -30.0370 H     2041  INH2041     0.1740
     14  C10      -53.1410  -20.3730  -34.6530 C.3   2041  INH2041     0.1410
     15  C11      -53.9270  -20.8290  -35.8650 C.3   2041  INH2041     0.1520
     16  N3       -54.9440  -19.8650  -36.2330 N.3   2041  INH2041    -0.3140
     17  H28      -54.6990  -19.0960  -36.8230 H     2041  INH2041     0.1720
     18  S1       -56.4500  -20.0080  -35.7120 S.O2  2041  INH2041     0.2580
     19  O1       -56.7100  -21.4300  -35.6420 O.2   2041  INH2041    -0.2010
     20  O2       -57.3370  -19.3570  -36.6390 O.2   2041  INH2041    -0.2010
     21  C16      -56.6280  -19.2580  -34.3090 C.ar  2041  INH2041     0.0800
     22  C19      -56.9470  -17.8960  -34.3620 C.ar  2041  INH2041     0.0260
     23  C20      -57.1440  -17.1500  -33.2000 C.ar  2041  INH2041     0.0140
     24  C14      -57.0290  -17.7500  -31.9500 C.ar  2041  INH2041    -0.0260
     25  C21      -57.2230  -17.0190  -30.7700 C.ar  2041  INH2041     0.0120
     26  C18      -56.6960  -19.2040  -31.8830 C.ar  2041  INH2041    -0.0250
     27  C15      -57.1030  -17.6600  -29.5360 C.ar  2041  INH2041     0.0010
     28  C22      -56.7970  -19.0290  -29.4690 C.ar  2041  INH2041     0.0010
     29  C13      -56.5950  -19.8000  -30.6280 C.ar  2041  INH2041     0.0120
     30  C17      -56.5120  -19.9200  -33.0710 C.ar  2041  INH2041     0.0370
     31  C26      -52.1610  -23.6500  -31.8300 C.ar  2041  INH2041    -0.0180
     32  C4       -53.2720  -24.3580  -31.3790 C.ar  2041  INH2041     0.0150
     33  C5       -53.3500  -25.7110  -31.6990 C.ar  2041  INH2041     0.0400
     34  C32      -52.3450  -26.3420  -32.4530 C.ar  2041  INH2041     0.0970
     35  C6       -51.2310  -25.6220  -32.9060 C.ar  2041  INH2041     0.0710
     36  O5       -52.4430  -27.6820  -32.7530 O.3   2041  INH2041    -0.3290
     37  C27      -51.1650  -24.2710  -32.5790 C.ar  2041  INH2041     0.0450
     38  N6       -50.2150  -26.2430  -33.6890 N.am  2041  INH2041    -0.3130
     39  C8       -50.4580  -27.4710  -34.1560 C.2   2041  INH2041     0.2590
     40  O4       -49.6080  -28.0740  -34.7730 O.2   2041  INH2041    -0.2700
     41  C31      -51.8170  -28.1140  -33.9650 C.3   2041  INH2041     0.1410
     42  C7       -51.5880  -29.6170  -33.9400 C.3   2041  INH2041     0.0570
     43  C12      -52.7330  -27.6840  -35.1150 C.3   2041  INH2041     0.0570
     44  C28      -48.9530  -25.5450  -34.0490 C.3   2041  INH2041     0.1340
     45  C9       -47.8930  -25.7140  -32.9680 C.3   2041  INH2041     0.0460
     46  C29      -47.6010  -24.3340  -32.3660 C.3   2041  INH2041     0.1680
     47  O3       -46.9610  -24.4470  -31.1090 O.3   2041  INH2041    -0.3960
     48  C30      -47.3420  -23.4520  -30.1520 C.3   2041  INH2041     0.2010
     49  C2       -50.7590  -22.7710  -29.2770 C.3   2041  INH2041     0.0540
     50  C3       -51.6770  -22.6380  -28.0840 C.3   2041  INH2041     0.0110
@<TRIPOS>BOND
     1    17    16    1
     2    20    18    2
     3    16    15    1
     4    16    18    1
     5    15    14    1
     6    18    19    2
     7    18    21    1
     8    43    41    1
     9    40    39    2
    10    14     3    1
    11    22    21   ar
    12    22    23   ar
    13    21    30   ar
    14    39    41    1
    15    39    38   am
    16    44    38    1
    17    44    45    1
    18    41    42    1
    19    41    36    1
    20    11     3    1
    21     3     5    1
    22    38    35    1
    23    23    24   ar
    24    30    26   ar
    25    45    46    1
    26     2     1    1
    27    35    37   ar
    28    35    34   ar
    29    36    34    1
    30    37    31   ar
    31     5     1    1
    32     5     4    2
    33    34    33   ar
    34    46    47    1
    35     1     9    1
    36    24    26   ar
    37    24    25   ar
    38    26    29   ar
    39    31     4    1
    40    31    32   ar
    41    33    32   ar
    42    12    10    1
    43     4     6    1
    44     9    10    1
    45     9     7    1
    46    47    48    1
    47    10    13    1
    48    25    27   ar
    49    29    28   ar
    50     6     7    1
    51     6    49    1
    52     7     8    1
    53    27    28   ar
    54    49    50    1
