@<TRIPOS>MOLECULE
/tmp/ewbell/vina_2il2_2il2_lig/vina/vina5.pdbqt
 50 54 0 0 0
SMALL
GASTEIGER

@<TRIPOS>ATOM
      1  N1       -50.4130  -22.1350  -32.8660 N.pl3 2041  INH2041    -0.1760
      2  H1       -49.9680  -22.9140  -33.3520 H     2041  INH2041     0.1860
      3  N2       -52.3550  -22.5190  -34.0930 N.pl3 2041  INH2041    -0.3730
      4  C1       -52.3170  -20.6570  -32.4650 C.2   2041  INH2041     0.0420
      5  C23      -51.6880  -21.8070  -33.1670 C.2   2041  INH2041     0.1300
      6  C24      -51.4950  -19.9500  -31.4620 C.3   2041  INH2041     0.0410
      7  N4       -50.2320  -20.3950  -31.2730 N.3   2041  INH2041    -0.1950
      8  H4       -49.6410  -19.9090  -30.5990 H     2041  INH2041     0.1840
      9  C25      -49.7170  -21.4520  -31.9340 C.3   2041  INH2041     0.6770
     10  N5       -48.4480  -21.8110  -31.6560 N.3   2041  INH2041    -0.2340
     11  H1       -53.3280  -22.2800  -34.3310 H     2041  INH2041     0.1610
     12  H29      -48.0220  -22.6130  -32.1410 H     2041  INH2041     0.1740
     13  H30      -47.9040  -21.2830  -30.9590 H     2041  INH2041     0.1740
     14  C10      -51.6960  -23.6250  -34.7500 C.3   2041  INH2041     0.1410
     15  C11      -51.9980  -24.9670  -34.1170 C.3   2041  INH2041     0.1520
     16  N3       -50.7870  -25.6420  -33.6980 N.3   2041  INH2041    -0.3140
     17  H28      -50.0170  -25.7060  -34.3320 H     2041  INH2041     0.1720
     18  S1       -50.6580  -26.2880  -32.2390 S.O2  2041  INH2041     0.2580
     19  O1       -49.3360  -26.8740  -32.1830 O.2   2041  INH2041    -0.2010
     20  O2       -51.6830  -27.2830  -32.0670 O.2   2041  INH2041    -0.2010
     21  C16      -50.9100  -25.1770  -31.1130 C.ar  2041  INH2041     0.0800
     22  C19      -49.8300  -24.8800  -30.2720 C.ar  2041  INH2041     0.0260
     23  C20      -49.9330  -23.9160  -29.2700 C.ar  2041  INH2041     0.0140
     24  C14      -51.1220  -23.2170  -29.0850 C.ar  2041  INH2041    -0.0260
     25  C21      -51.2460  -22.2440  -28.0850 C.ar  2041  INH2041     0.0120
     26  C18      -52.2770  -23.5210  -29.9800 C.ar  2041  INH2041    -0.0250
     27  C15      -52.4550  -21.5620  -27.9350 C.ar  2041  INH2041     0.0010
     28  C22      -53.5420  -21.8400  -28.7800 C.ar  2041  INH2041     0.0010
     29  C13      -53.4600  -22.8090  -29.7960 C.ar  2041  INH2041     0.0120
     30  C17      -52.1330  -24.4920  -30.9780 C.ar  2041  INH2041     0.0370
     31  C26      -53.7200  -20.2610  -32.6870 C.ar  2041  INH2041    -0.0180
     32  C4       -54.6820  -20.0480  -31.7020 C.ar  2041  INH2041     0.0150
     33  C5       -55.9630  -19.6940  -32.1170 C.ar  2041  INH2041     0.0400
     34  C32      -56.2770  -19.5540  -33.4790 C.ar  2041  INH2041     0.0970
     35  C6       -55.3040  -19.7670  -34.4650 C.ar  2041  INH2041     0.0710
     36  O5       -57.5530  -19.2070  -33.8630 O.3   2041  INH2041    -0.3290
     37  C27      -54.0270  -20.1210  -34.0380 C.ar  2041  INH2041     0.0450
     38  N6       -55.6020  -19.6080  -35.8490 N.am  2041  INH2041    -0.3130
     39  C8       -56.7710  -19.0470  -36.1690 C.2   2041  INH2041     0.2590
     40  O4       -57.1070  -18.9440  -37.3280 O.2   2041  INH2041    -0.2700
     41  C31      -57.6770  -18.4840  -35.0920 C.3   2041  INH2041     0.1410
     42  C7       -59.0980  -18.5800  -35.6260 C.3   2041  INH2041     0.0570
     43  C12      -57.2610  -17.0390  -34.8010 C.3   2041  INH2041     0.0570
     44  C28      -54.6350  -19.9770  -36.9160 C.3   2041  INH2041     0.1340
     45  C9       -55.1160  -21.1820  -37.7140 C.3   2041  INH2041     0.0460
     46  C29      -54.8460  -20.9100  -39.1990 C.3   2041  INH2041     0.1680
     47  O3       -53.4560  -20.8760  -39.4690 O.3   2041  INH2041    -0.3960
     48  C30      -52.7930  -22.1390  -39.3510 C.3   2041  INH2041     0.2010
     49  C2       -52.0060  -18.7810  -30.6550 C.3   2041  INH2041     0.0540
     50  C3       -51.3070  -17.5140  -31.0880 C.3   2041  INH2041     0.0110
@<TRIPOS>BOND
     1    47    48    1
     2    47    46    1
     3    46    45    1
     4    45    44    1
     5    40    39    2
     6    44    38    1
     7    39    38   am
     8    39    41    1
     9    38    35    1
    10    42    41    1
    11    41    43    1
    12    41    36    1
    13    14    15    1
    14    14     3    1
    15    35    37   ar
    16    35    34   ar
    17    17    16    1
    18    11     3    1
    19    15    16    1
    20     3     5    1
    21    37    31   ar
    22    36    34    1
    23    16    18    1
    24    34    33   ar
    25     2     1    1
    26     5     1    1
    27     5     4    2
    28     1     9    1
    29    31     4    1
    30    31    32   ar
    31     4     6    1
    32    18    19    2
    33    18    20    2
    34    18    21    1
    35    12    10    1
    36    33    32   ar
    37     9    10    1
    38     9     7    1
    39    10    13    1
    40     6     7    1
    41     6    49    1
    42     7     8    1
    43    21    30   ar
    44    21    22   ar
    45    50    49    1
    46    30    26   ar
    47    22    23   ar
    48    26    29   ar
    49    26    24   ar
    50    29    28   ar
    51    23    24   ar
    52    24    25   ar
    53    28    27   ar
    54    25    27   ar
