@<TRIPOS>MOLECULE
/tmp/ewbell/vina_2il2_2il2_lig/vina/vina3.pdbqt
 50 54 0 0 0
SMALL
GASTEIGER

@<TRIPOS>ATOM
      1  N1       -56.0470  -20.0850  -37.2260 N.pl3 2041  INH2041    -0.1760
      2  H1       -56.9690  -19.7120  -37.0000 H     2041  INH2041     0.1860
      3  N2       -55.7060  -20.5290  -34.9650 N.pl3 2041  INH2041    -0.3730
      4  C1       -53.9100  -21.0740  -36.5760 C.2   2041  INH2041     0.0420
      5  C23      -55.2590  -20.5520  -36.2340 C.2   2041  INH2041     0.1300
      6  C24      -53.5230  -21.0580  -38.0010 C.3   2041  INH2041     0.0410
      7  N4       -54.4210  -20.5570  -38.8790 N.3   2041  INH2041    -0.1950
      8  H4       -54.1670  -20.5180  -39.8660 H     2041  INH2041     0.1840
      9  C25      -55.6370  -20.1040  -38.5120 C.3   2041  INH2041     0.6770
     10  N5       -56.4530  -19.6350  -39.4760 N.3   2041  INH2041    -0.2340
     11  H1       -55.1160  -20.8820  -34.1990 H     2041  INH2041     0.1610
     12  H29      -57.3890  -19.2820  -39.2330 H     2041  INH2041     0.1740
     13  H30      -56.1400  -19.6290  -40.4580 H     2041  INH2041     0.1740
     14  C10      -57.0250  -20.0060  -34.6870 C.3   2041  INH2041     0.1410
     15  C11      -57.0130  -18.8190  -33.7460 C.3   2041  INH2041     0.1520
     16  N3       -55.8000  -18.7790  -32.9560 N.3   2041  INH2041    -0.3140
     17  H28      -54.9200  -18.9450  -33.4000 H     2041  INH2041     0.1720
     18  S1       -55.8410  -18.4750  -31.3850 S.O2  2041  INH2041     0.2580
     19  O1       -57.2380  -18.5240  -31.0100 O.2   2041  INH2041    -0.2010
     20  O2       -55.2750  -17.1750  -31.1370 O.2   2041  INH2041    -0.2010
     21  C16      -54.9320  -19.5260  -30.5900 C.ar  2041  INH2041     0.0800
     22  C19      -55.5950  -20.3880  -29.7080 C.ar  2041  INH2041     0.0260
     23  C20      -54.9040  -21.3550  -28.9790 C.ar  2041  INH2041     0.0140
     24  C14      -53.5250  -21.4870  -29.1150 C.ar  2041  INH2041    -0.0260
     25  C21      -52.8120  -22.4530  -28.3920 C.ar  2041  INH2041     0.0120
     26  C18      -52.8100  -20.5770  -30.0570 C.ar  2041  INH2041    -0.0250
     27  C15      -51.4300  -22.5560  -28.5620 C.ar  2041  INH2041     0.0010
     28  C22      -50.7530  -21.7060  -29.4520 C.ar  2041  INH2041     0.0010
     29  C13      -51.4310  -20.7250  -30.1970 C.ar  2041  INH2041     0.0120
     30  C17      -53.5390  -19.6230  -30.7760 C.ar  2041  INH2041     0.0370
     31  C26      -53.0030  -21.6540  -35.5670 C.ar  2041  INH2041    -0.0180
     32  C4       -52.3880  -20.9700  -34.5210 C.ar  2041  INH2041     0.0150
     33  C5       -51.5480  -21.6960  -33.6800 C.ar  2041  INH2041     0.0400
     34  C32      -51.3280  -23.0700  -33.8770 C.ar  2041  INH2041     0.0970
     35  C6       -51.9510  -23.7520  -34.9300 C.ar  2041  INH2041     0.0710
     36  O5       -50.4890  -23.7640  -33.0340 O.3   2041  INH2041    -0.3290
     37  C27      -52.7890  -23.0160  -35.7630 C.ar  2041  INH2041     0.0450
     38  N6       -51.7550  -25.1490  -35.1290 N.am  2041  INH2041    -0.3130
     39  C8       -51.1310  -25.8290  -34.1630 C.2   2041  INH2041     0.2590
     40  O4       -50.8780  -27.0060  -34.3040 O.2   2041  INH2041    -0.2700
     41  C31      -50.7700  -25.1550  -32.8550 C.3   2041  INH2041     0.1410
     42  C7       -49.5480  -25.8810  -32.3140 C.3   2041  INH2041     0.0570
     43  C12      -51.9690  -25.2470  -31.9050 C.3   2041  INH2041     0.0570
     44  C28      -52.2780  -25.8620  -36.3240 C.3   2041  INH2041     0.1340
     45  C9       -51.2170  -25.9890  -37.4090 C.3   2041  INH2041     0.0460
     46  C29      -51.5790  -27.1890  -38.2920 C.3   2041  INH2041     0.1680
     47  O3       -50.4620  -28.0360  -38.4910 O.3   2041  INH2041    -0.3960
     48  C30      -50.0350  -28.7470  -37.3240 C.3   2041  INH2041     0.2010
     49  C2       -52.1960  -21.5770  -38.5000 C.3   2041  INH2041     0.0540
     50  C3       -52.4190  -22.7530  -39.4220 C.3   2041  INH2041     0.0110
@<TRIPOS>BOND
     1    13    10    1
     2     8     7    1
     3    10    12    1
     4    10     9    1
     5    50    49    1
     6     7     9    1
     7     7     6    1
     8     9     1    1
     9    49     6    1
    10    47    46    1
    11    47    48    1
    12    46    45    1
    13     6     4    1
    14    45    44    1
    15     1     2    1
    16     1     5    1
    17     4     5    2
    18     4    31    1
    19    44    38    1
    20     5     3    1
    21    37    31   ar
    22    37    35   ar
    23    31    32   ar
    24    38    35    1
    25    38    39   am
    26     3    14    1
    27     3    11    1
    28    35    34   ar
    29    14    15    1
    30    32    33   ar
    31    40    39    2
    32    39    41    1
    33    34    33   ar
    34    34    36    1
    35    15    16    1
    36    17    16    1
    37    36    41    1
    38    16    18    1
    39    41    42    1
    40    41    43    1
    41    18    20    2
    42    18    19    2
    43    18    21    1
    44    30    21   ar
    45    30    26   ar
    46    21    22   ar
    47    29    26   ar
    48    29    28   ar
    49    26    24   ar
    50    22    23   ar
    51    28    27   ar
    52    24    23   ar
    53    24    25   ar
    54    27    25   ar
