@<TRIPOS>MOLECULE
/tmp/ewbell/vina_2il2_2il2_lig/vina/vina4.pdbqt
 50 54 0 0 0
SMALL
GASTEIGER

@<TRIPOS>ATOM
      1  N1       -50.9840  -21.7750  -31.5430 N.pl3 2041  INH2041    -0.1760
      2  H1       -50.6430  -22.7360  -31.5480 H     2041  INH2041     0.1860
      3  N2       -53.0460  -22.5340  -32.3150 N.pl3 2041  INH2041    -0.3730
      4  C1       -52.7270  -20.1090  -31.9440 C.2   2041  INH2041     0.0420
      5  C23      -52.2510  -21.5180  -31.9370 C.2   2041  INH2041     0.1300
      6  C24      -51.7710  -19.0740  -31.5020 C.3   2041  INH2041     0.0410
      7  N4       -50.5350  -19.4870  -31.1400 N.3   2041  INH2041    -0.1950
      8  H4       -49.8540  -18.7860  -30.8500 H     2041  INH2041     0.1840
      9  C25      -50.1620  -20.7830  -31.1440 C.3   2041  INH2041     0.6770
     10  N5       -48.9060  -21.0770  -30.7530 N.3   2041  INH2041    -0.2340
     11  H1       -54.0140  -22.3520  -32.6170 H     2041  INH2041     0.1610
     12  H29      -48.5860  -22.0560  -30.7440 H     2041  INH2041     0.1740
     13  H30      -48.2660  -20.3230  -30.4650 H     2041  INH2041     0.1740
     14  C10      -52.5320  -23.8850  -32.2940 C.3   2041  INH2041     0.1410
     15  C11      -51.6970  -24.2290  -33.5100 C.3   2041  INH2041     0.1520
     16  N3       -50.5130  -24.9800  -33.1460 N.3   2041  INH2041    -0.3140
     17  H28      -50.5970  -25.9520  -32.9270 H     2041  INH2041     0.1720
     18  S1       -49.0730  -24.2840  -33.0880 S.O2  2041  INH2041     0.2580
     19  O1       -49.2540  -22.9580  -33.6390 O.2   2041  INH2041    -0.2010
     20  O2       -48.1410  -25.0540  -33.8680 O.2   2041  INH2041    -0.2010
     21  C16      -48.5160  -24.2790  -31.5870 C.ar  2041  INH2041     0.0800
     22  C19      -49.4200  -24.6450  -30.5820 C.ar  2041  INH2041     0.0260
     23  C20      -49.0360  -24.6940  -29.2420 C.ar  2041  INH2041     0.0140
     24  C14      -47.7320  -24.3790  -28.8720 C.ar  2041  INH2041    -0.0260
     25  C21      -47.3260  -24.4230  -27.5310 C.ar  2041  INH2041     0.0120
     26  C18      -46.7590  -23.9940  -29.9360 C.ar  2041  INH2041    -0.0250
     27  C15      -46.0070  -24.1050  -27.2020 C.ar  2041  INH2041     0.0010
     28  C22      -45.0860  -23.7480  -28.2020 C.ar  2041  INH2041     0.0010
     29  C13      -45.4530  -23.6930  -29.5580 C.ar  2041  INH2041     0.0120
     30  C17      -47.1810  -23.9630  -31.2710 C.ar  2041  INH2041     0.0370
     31  C26      -54.1090  -19.7390  -32.3040 C.ar  2041  INH2041    -0.0180
     32  C4       -55.1230  -19.3840  -31.4190 C.ar  2041  INH2041     0.0150
     33  C5       -56.3720  -19.0830  -31.9550 C.ar  2041  INH2041     0.0400
     34  C32      -56.6040  -19.1350  -33.3400 C.ar  2041  INH2041     0.0970
     35  C6       -55.5780  -19.4920  -34.2250 C.ar  2041  INH2041     0.0710
     36  O5       -57.8490  -18.8370  -33.8450 O.3   2041  INH2041    -0.3290
     37  C27      -54.3340  -19.7900  -33.6770 C.ar  2041  INH2041     0.0450
     38  N6       -55.7920  -19.5280  -35.6340 N.am  2041  INH2041    -0.3130
     39  C8       -56.9310  -19.0100  -36.0990 C.2   2041  INH2041     0.2590
     40  O4       -57.1980  -19.0700  -37.2800 O.2   2041  INH2041    -0.2700
     41  C31      -57.8900  -18.2950  -35.1690 C.3   2041  INH2041     0.1410
     42  C7       -59.2790  -18.4560  -35.7680 C.3   2041  INH2041     0.0570
     43  C12      -57.4700  -16.8250  -35.0600 C.3   2041  INH2041     0.0570
     44  C28      -54.7700  -20.0510  -36.5780 C.3   2041  INH2041     0.1340
     45  C9       -54.6170  -21.5620  -36.4570 C.3   2041  INH2041     0.0460
     46  C29      -53.3460  -21.9740  -37.2090 C.3   2041  INH2041     0.1680
     47  O3       -52.5380  -20.8500  -37.5070 O.3   2041  INH2041    -0.3960
     48  C30      -52.0370  -20.8130  -38.8470 C.3   2041  INH2041     0.2010
     49  C2       -52.1210  -17.6060  -31.4350 C.3   2041  INH2041     0.0540
     50  C3       -51.2060  -16.9060  -30.4570 C.3   2041  INH2041     0.0110
@<TRIPOS>BOND
     1    48    47    1
     2    47    46    1
     3    40    39    2
     4    46    45    1
     5    44    45    1
     6    44    38    1
     7    39    38   am
     8    39    41    1
     9    42    41    1
    10    38    35    1
    11    41    43    1
    12    41    36    1
    13    35    37   ar
    14    35    34   ar
    15    20    18    2
    16    36    34    1
    17    37    31   ar
    18    19    18    2
    19    15    16    1
    20    15    14    1
    21    34    33   ar
    22    16    18    1
    23    16    17    1
    24    18    21    1
    25    11     3    1
    26     3    14    1
    27     3     5    1
    28    31     4    1
    29    31    32   ar
    30    33    32   ar
    31     4     5    2
    32     4     6    1
    33     5     1    1
    34    21    30   ar
    35    21    22   ar
    36     2     1    1
    37     1     9    1
    38     6    49    1
    39     6     7    1
    40    49    50    1
    41    30    26   ar
    42     9     7    1
    43     9    10    1
    44     7     8    1
    45    10    12    1
    46    10    13    1
    47    22    23   ar
    48    26    29   ar
    49    26    24   ar
    50    29    28   ar
    51    23    24   ar
    52    24    25   ar
    53    28    27   ar
    54    25    27   ar
