@<TRIPOS>MOLECULE
/tmp/ewbell/vina_2il2_2il2_lig/vina/vina1.pdbqt
 50 54 0 0 0
SMALL
GASTEIGER

@<TRIPOS>ATOM
      1  N1       -53.2420  -19.1090  -32.4280 N.pl3 2041  INH2041    -0.1760
      2  H1       -53.4570  -18.4800  -33.2010 H     2041  INH2041     0.1860
      3  N2       -53.0250  -20.8580  -33.9510 N.pl3 2041  INH2041    -0.3730
      4  C1       -52.7040  -21.3230  -31.5430 C.2   2041  INH2041     0.0420
      5  C23      -52.9960  -20.4130  -32.6820 C.2   2041  INH2041     0.1300
      6  C24      -52.6910  -20.7260  -30.1910 C.3   2041  INH2041     0.0410
      7  N4       -52.9590  -19.4040  -30.0970 N.3   2041  INH2041    -0.1950
      8  H4       -52.9740  -18.9760  -29.1720 H     2041  INH2041     0.1840
      9  C25      -53.2080  -18.6250  -31.1690 C.3   2041  INH2041     0.6770
     10  N5       -53.4540  -17.3170  -30.9540 N.3   2041  INH2041    -0.2340
     11  H1       -52.8390  -21.8500  -34.1590 H     2041  INH2041     0.1610
     12  H29      -53.6480  -16.6920  -31.7490 H     2041  INH2041     0.1740
     13  H30      -53.4480  -16.9430  -29.9950 H     2041  INH2041     0.1740
     14  C10      -53.3190  -19.9330  -35.0220 C.3   2041  INH2041     0.1410
     15  C11      -54.2540  -20.5030  -36.0680 C.3   2041  INH2041     0.1520
     16  N3       -55.3820  -19.6250  -36.3080 N.3   2041  INH2041    -0.3140
     17  H28      -55.2720  -18.8420  -36.9190 H     2041  INH2041     0.1720
     18  S1       -56.8000  -19.8870  -35.6130 S.O2  2041  INH2041     0.2580
     19  O1       -56.9870  -21.3220  -35.6280 O.2   2041  INH2041    -0.2010
     20  O2       -57.8280  -19.2140  -36.3620 O.2   2041  INH2041    -0.2010
     21  C16      -56.8230  -19.2570  -34.1410 C.ar  2041  INH2041     0.0800
     22  C19      -57.0800  -17.8830  -34.0500 C.ar  2041  INH2041     0.0260
     23  C20      -57.1420  -17.2350  -32.8170 C.ar  2041  INH2041     0.0140
     24  C14      -56.9520  -17.9480  -31.6370 C.ar  2041  INH2041    -0.0260
     25  C21      -57.0120  -17.3160  -30.3870 C.ar  2041  INH2041     0.0120
     26  C18      -56.6850  -19.4140  -31.7220 C.ar  2041  INH2041    -0.0250
     27  C15      -56.8200  -18.0680  -29.2270 C.ar  2041  INH2041     0.0010
     28  C22      -56.5750  -19.4490  -29.3030 C.ar  2041  INH2041     0.0010
     29  C13      -56.5080  -20.1220  -30.5360 C.ar  2041  INH2041     0.0120
     30  C17      -56.6350  -20.0300  -32.9780 C.ar  2041  INH2041     0.0370
     31  C26      -52.3690  -22.7470  -31.7280 C.ar  2041  INH2041    -0.0180
     32  C4       -53.2370  -23.8250  -31.5690 C.ar  2041  INH2041     0.0150
     33  C5       -52.7240  -25.1030  -31.7740 C.ar  2041  INH2041     0.0400
     34  C32      -51.3790  -25.3010  -32.1300 C.ar  2041  INH2041     0.0970
     35  C6       -50.5120  -24.2120  -32.2900 C.ar  2041  INH2041     0.0710
     36  O5       -50.8940  -26.5750  -32.3220 O.3   2041  INH2041    -0.3290
     37  C27      -51.0370  -22.9400  -32.0820 C.ar  2041  INH2041     0.0450
     38  N6       -49.1510  -24.3960  -32.6710 N.am  2041  INH2041    -0.3130
     39  C8       -48.7820  -25.6140  -33.0750 C.2   2041  INH2041     0.2590
     40  O4       -47.6250  -25.8470  -33.3500 O.2   2041  INH2041    -0.2700
     41  C31      -49.8100  -26.7150  -33.2450 C.3   2041  INH2041     0.1410
     42  C7       -49.0810  -28.0300  -33.0160 C.3   2041  INH2041     0.0570
     43  C12      -50.4090  -26.6190  -34.6520 C.3   2041  INH2041     0.0570
     44  C28      -48.1760  -23.2750  -32.6960 C.3   2041  INH2041     0.1340
     45  C9       -47.1000  -23.4450  -31.6310 C.3   2041  INH2041     0.0460
     46  C29      -47.7090  -23.0700  -30.2740 C.3   2041  INH2041     0.1680
     47  O3       -46.7080  -22.6750  -29.3540 O.3   2041  INH2041    -0.3960
     48  C30      -46.2250  -23.7250  -28.5080 C.3   2041  INH2041     0.2010
     49  C2       -52.3880  -21.5200  -28.9440 C.3   2041  INH2041     0.0540
     50  C3       -53.6750  -21.8730  -28.2350 C.3   2041  INH2041     0.0110
@<TRIPOS>BOND
     1    17    16    1
     2    20    18    2
     3    16    15    1
     4    16    18    1
     5    15    14    1
     6    19    18    2
     7    18    21    1
     8    14     3    1
     9    43    41    1
    10    11     3    1
    11    21    22   ar
    12    21    30   ar
    13    22    23   ar
    14     3     5    1
    15    40    39    2
    16    41    39    1
    17    41    42    1
    18    41    36    1
    19     2     1    1
    20    39    38   am
    21    30    26   ar
    22    23    24   ar
    23    44    38    1
    24    44    45    1
    25     5     1    1
    26     5     4    2
    27    38    35    1
    28     1     9    1
    29    36    34    1
    30    35    34   ar
    31    35    37   ar
    32    34    33   ar
    33    37    31   ar
    34    33    32   ar
    35    12    10    1
    36    31    32   ar
    37    31     4    1
    38    26    24   ar
    39    26    29   ar
    40    24    25   ar
    41    45    46    1
    42     4     6    1
    43     9    10    1
    44     9     7    1
    45    10    13    1
    46    29    28   ar
    47    25    27   ar
    48    46    47    1
    49     6     7    1
    50     6    49    1
    51     7     8    1
    52    47    48    1
    53    28    27   ar
    54    49    50    1
