@<TRIPOS>MOLECULE
./ligand/2ou0_lig.pdb
 13 13 0 0 0
SMALL
GASTEIGER

@<TRIPOS>ATOM
      1  C1       -22.4780   26.6790   -5.4730 C.ar  165  INH165     -0.0442
      2  C2       -21.7930   27.3200   -4.5220 C.ar  165  INH165     -0.0442
      3  C3       -22.8150   25.4790   -4.9980 C.ar  165  INH165      0.0043
      4  C4       -21.6950   26.5310   -3.4480 C.ar  165  INH165      0.0043
      5  C5       -22.4780   24.2370   -2.8640 C.3   165  INH165      0.0113
      6  N1       -22.3340   25.4060   -3.7610 N.ar  165  INH165     -0.3562
      7  H1       -22.7170   27.0640   -6.4530 H     165  INH165      0.0632
      8  H2       -21.3840   28.3160   -4.6070 H     165  INH165      0.0632
      9  H3       -23.3720   24.7140   -5.5180 H     165  INH165      0.0809
     10  H4       -21.1990   26.7590   -2.5160 H     165  INH165      0.0809
     11  H5       -22.5140   23.3160   -3.4640 H     165  INH165      0.0455
     12  H6       -21.6200   24.1940   -2.1770 H     165  INH165      0.0455
     13  H7       -23.4080   24.3330   -2.2840 H     165  INH165      0.0455
@<TRIPOS>BOND
     1     1     7    1
     2     1     3   ar
     3     1     2   ar
     4     2     8    1
     5     2     4   ar
     6     3     6   ar
     7     3     9    1
     8     4    10    1
     9     4     6   ar
    10     5     6    1
    11     5    13    1
    12     5    12    1
    13     5    11    1
