@<TRIPOS>MOLECULE
/tmp/ewbell/vina_2ou0_2ou0_lig/vina/vina3.pdbqt
 6 6 0 0 0
SMALL
GASTEIGER

@<TRIPOS>ATOM
      1  C1       -25.5430   18.5390  -15.6810 C.ar  165  INH165      0.0190
      2  C2       -25.1070   17.6050  -14.8320 C.ar  165  INH165      0.0190
      3  C3       -26.2940   17.9360  -16.6040 C.ar  165  INH165      0.0900
      4  C4       -25.5790   16.4140  -15.2130 C.ar  165  INH165      0.0900
      5  C5       -27.0270   15.6000  -17.0720 C.3   165  INH165      0.1540
      6  N1       -26.3090   16.6410  -16.3020 N.ar  165  INH165     -0.3710
@<TRIPOS>BOND
     1     5     6    1
     2     3     6   ar
     3     3     1   ar
     4     6     4   ar
     5     1     2   ar
     6     4     2   ar
