@<TRIPOS>MOLECULE
/tmp/ewbell/vina_2ou0_2ou0_lig/vina/vina1.pdbqt
 6 6 0 0 0
SMALL
GASTEIGER

@<TRIPOS>ATOM
      1  C1       -22.7190   26.5900   -6.0670 C.ar  165  INH165      0.0190
      2  C2       -22.1410   27.4800   -5.2550 C.ar  165  INH165      0.0190
      3  C3       -22.9170   25.4690   -5.3720 C.ar  165  INH165      0.0900
      4  C4       -21.9730   26.9260   -4.0500 C.ar  165  INH165      0.0900
      5  C5       -22.4810   24.7040   -3.0410 C.3   165  INH165      0.1540
      6  N1       -22.4610   25.6910   -4.1440 N.ar  165  INH165     -0.3710
@<TRIPOS>BOND
     1     1     3   ar
     2     1     2   ar
     3     3     6   ar
     4     2     4   ar
     5     6     4   ar
     6     6     5    1
