@<TRIPOS>MOLECULE
/tmp/ewbell/vina_2ou0_2ou0_lig/vina/vina4.pdbqt
 6 6 0 0 0
SMALL
GASTEIGER

@<TRIPOS>ATOM
      1  C1       -26.4230   15.5000  -15.9160 C.ar  165  INH165      0.0190
      2  C2       -25.5760   15.8970  -14.9610 C.ar  165  INH165      0.0190
      3  C3       -26.6750   16.5480  -16.7020 C.ar  165  INH165      0.0900
      4  C4       -25.2920   17.1900  -15.1400 C.ar  165  INH165      0.0900
      5  C5       -25.9640   18.9350  -16.7890 C.3   165  INH165      0.1540
      6  N1       -25.9740   17.5690  -16.2180 N.ar  165  INH165     -0.3710
@<TRIPOS>BOND
     1     5     6    1
     2     3     6   ar
     3     3     1   ar
     4     6     4   ar
     5     1     2   ar
     6     4     2   ar
