@<TRIPOS>MOLECULE
/tmp/ewbell/vina_2ou0_2ou0_lig/vina/vina5.pdbqt
 6 6 0 0 0
SMALL
GASTEIGER

@<TRIPOS>ATOM
      1  C1       -25.3060   17.6280  -15.0390 C.ar  165  INH165      0.0190
      2  C2       -24.8640   18.8050  -14.5890 C.ar  165  INH165      0.0190
      3  C3       -26.5600   17.4690  -14.6110 C.ar  165  INH165      0.0900
      4  C4       -25.8320   19.3920  -13.8780 C.ar  165  INH165      0.0900
      5  C5       -28.1680   18.7940  -13.2450 C.3   165  INH165      0.1540
      6  N1       -26.8670   18.5550  -13.9080 N.ar  165  INH165     -0.3710
@<TRIPOS>BOND
     1     1     3   ar
     2     1     2   ar
     3     3     6   ar
     4     2     4   ar
     5     6     4   ar
     6     6     5    1
