@<TRIPOS>MOLECULE
./ligand/2cli_lig.pdb
 31 31 0 0 0
SMALL
GASTEIGER

@<TRIPOS>ATOM
      1  C1        50.8670   23.3970   15.0090 C.ar  1321  INH1321     0.1301
      2  C2        49.6770   23.3090   15.8670 C.ar  1321  INH1321    -0.0178
      3  C3        48.9080   24.5840   15.9470 C.ar  1321  INH1321    -0.0319
      4  C4        49.2410   25.7730   15.3120 C.ar  1321  INH1321     0.1055
      5  C5        50.4920   25.7890   14.4320 C.ar  1321  INH1321    -0.0319
      6  C6        51.2740   24.6020   14.3160 C.ar  1321  INH1321    -0.0178
      7  O1        51.7890   22.3450   14.7630 O.3   1321  INH1321    -0.4057
      8  C7        51.3560   20.9420   14.5680 C.3   1321  INH1321     0.5752
      9  F1        52.3740   20.2670   14.0460 F     1321  INH1321    -0.1328
     10  F2        50.3800   20.8300   13.6300 F     1321  INH1321    -0.1328
     11  F3        50.9450   20.3080   15.6980 F     1321  INH1321    -0.1328
     12  S1        48.1940   27.2170   15.5520 S.O2  1321  INH1321     0.0585
     13  N1        48.7980   28.5920   14.7060 N.3   1321  INH1321    -0.1878
     14  C8        48.9810   28.4750   13.2410 C.3   1321  INH1321     0.0414
     15  C9        47.8140   28.9640   12.5750 C.3   1321  INH1321     0.0733
     16  O2        47.7940   28.4390   11.2590 O.3   1321  INH1321    -0.2823
     17  P1        48.0480   29.4660   10.0210 P.3   1321  INH1321     0.5319
     18  O3        49.2120   30.3470   10.3130 O.3   1321  INH1321    -0.1145
     19  O4        48.2890   28.6460    8.8260 O.2   1321  INH1321    -0.2224
     20  O5        46.8070   30.2620    9.8870 O.3   1321  INH1321    -0.1145
     21  O6        48.0870   27.4380   17.0120 O.2   1321  INH1321    -0.1530
     22  O7        46.8790   26.9040   14.9320 O.2   1321  INH1321    -0.1530
     23  H1        49.3870   22.4050   16.3910 H     1321  INH1321     0.0655
     24  H2        48.0100   24.5830   16.5540 H     1321  INH1321     0.0638
     25  H3        50.7800   26.6910   13.9040 H     1321  INH1321     0.0638
     26  H4        52.1730   24.6020   13.7100 H     1321  INH1321     0.0655
     27  H5        49.0180   29.4400   15.1880 H     1321  INH1321     0.1481
     28  H6        49.1400   27.4200   12.9740 H     1321  INH1321     0.0464
     29  H7        49.8550   29.0670   12.9320 H     1321  INH1321     0.0464
     30  H8        47.8420   30.0630   12.5360 H     1321  INH1321     0.0579
     31  H9        46.9140   28.6400   13.1180 H     1321  INH1321     0.0579
@<TRIPOS>BOND
     1    19    17    2
     2    20    17    1
     3    17    18    1
     4    17    16    1
     5    16    15    1
     6    30    15    1
     7    15    31    1
     8    15    14    1
     9    29    14    1
    10    28    14    1
    11    14    13    1
    12    10     8    1
    13    26     6    1
    14    25     5    1
    15     9     8    1
    16     6     5   ar
    17     6     1   ar
    18     5     4   ar
    19     8     7    1
    20     8    11    1
    21    13    27    1
    22    13    12    1
    23     7     1    1
    24    22    12    2
    25     1     2   ar
    26     4    12    1
    27     4     3   ar
    28    12    21    2
    29     2     3   ar
    30     2    23    1
    31     3    24    1
