@<TRIPOS>MOLECULE
/tmp/ewbell/vina_2cli_2cli_lig/vina/vina2.pdbqt
 25 25 0 0 0
SMALL
GASTEIGER

@<TRIPOS>ATOM
      1  S1        49.4340   26.6320   15.0900 S.O2  1321  INH1321     0.2580
      2  O6        50.6630   27.4560   15.1210 O.2   1321  INH1321    -0.2010
      3  O7        48.6170   26.7940   16.3220 O.2   1321  INH1321    -0.2010
      4  C4        49.9550   24.9100   15.0330 C.ar  1321  INH1321     0.0790
      5  C3        49.0560   23.9190   15.4050 C.ar  1321  INH1321     0.0280
      6  C2        49.3340   22.4550   15.4310 C.ar  1321  INH1321     0.0380
      7  C1        50.6960   22.1120   14.9960 C.ar  1321  INH1321     0.0780
      8  C6        51.6850   23.0900   14.5940 C.ar  1321  INH1321     0.0380
      9  C5        51.3530   24.4780   14.5890 C.ar  1321  INH1321     0.0280
     10  O1        51.2390   20.8010   14.9360 O.3   1321  INH1321    -0.2550
     11  C7        51.1970   19.9820   13.7020 C.3   1321  INH1321     0.5300
     12  F2        51.1720   18.6500   13.9690 F     1321  INH1321    -0.1440
     13  F1        50.0340   20.2050   13.1010 F     1321  INH1321    -0.1440
     14  F3        52.2010   20.2270   12.8190 F     1321  INH1321    -0.1440
     15  N1        48.3900   27.0280   13.7770 N.3   1321  INH1321    -0.3130
     16  H5        47.9260   26.3140   13.2520 H     1321  INH1321     0.1720
     17  C8        48.2040   28.4610   13.4520 C.3   1321  INH1321     0.1590
     18  C9        47.2130   28.5920   12.4300 C.3   1321  INH1321     0.2000
     19  O2        47.7940   28.2270   11.1900 O.3   1321  INH1321    -0.2950
     20  P1        48.1540   29.4150   10.1350 P.3   1321  INH1321     0.3900
     21  O4        49.3190   30.1290   10.6750 O.2   1321  INH1321    -0.6320
     22  O5        48.4780   28.7430    8.8570 O.3   1321  INH1321    -0.3070
     23  H         49.4340   28.5870    8.8060 H     1321  INH1321     0.2220
     24  O3        46.9900   30.3290    9.9710 O.3   1321  INH1321    -0.3070
     25  H         46.6000   30.5150   10.8390 H     1321  INH1321     0.2220
@<TRIPOS>BOND
     1    23    22    1
     2    22    20    1
     3    24    20    1
     4    24    25    1
     5    20    21    2
     6    20    19    1
     7    19    18    1
     8    18    17    1
     9    14    11    1
    10    13    11    1
    11    16    15    1
    12    17    15    1
    13    11    12    1
    14    11    10    1
    15    15     1    1
    16     9     8   ar
    17     9     4   ar
    18     8     7   ar
    19    10     7    1
    20     7     6   ar
    21     4     1    1
    22     4     5   ar
    23     1     2    2
    24     1     3    2
    25     5     6   ar
