@<TRIPOS>MOLECULE
/tmp/ewbell/vina_2cli_2cli_lig/vina/vina3.pdbqt
 25 25 0 0 0
SMALL
GASTEIGER

@<TRIPOS>ATOM
      1  S1        49.7900   26.8590   15.3990 S.O2  1321  INH1321     0.2580
      2  O6        48.7910   27.1250   16.4590 O.2   1321  INH1321    -0.2010
      3  O7        51.1580   27.2870   15.7950 O.2   1321  INH1321    -0.2010
      4  C4        49.3240   27.8540   13.9740 C.ar  1321  INH1321     0.0790
      5  C3        48.3750   27.3610   13.0870 C.ar  1321  INH1321     0.0280
      6  C2        47.8950   28.0490   11.8550 C.ar  1321  INH1321     0.0380
      7  C1        48.5170   29.3630   11.6390 C.ar  1321  INH1321     0.0780
      8  C6        49.5110   29.9390   12.5210 C.ar  1321  INH1321     0.0380
      9  C5        49.9260   29.2300   13.6870 C.ar  1321  INH1321     0.0280
     10  O1        48.2620   30.2290   10.5430 O.3   1321  INH1321    -0.2550
     11  C7        47.5780   29.7690    9.3120 C.3   1321  INH1321     0.5300
     12  F2        47.6510   30.6840    8.3100 F     1321  INH1321    -0.1440
     13  F1        48.2490   28.7260    8.8360 F     1321  INH1321    -0.1440
     14  F3        46.2770   29.4140    9.4790 F     1321  INH1321    -0.1440
     15  N1        49.9160   25.1870   14.9980 N.3   1321  INH1321    -0.3130
     16  H5        50.5010   24.8780   14.2490 H     1321  INH1321     0.1720
     17  C8        49.1300   24.2240   15.8030 C.3   1321  INH1321     0.1590
     18  C9        48.9460   23.0180   15.0560 C.3   1321  INH1321     0.2000
     19  O2        49.9020   22.0680   15.4930 O.3   1321  INH1321    -0.2950
     20  P1        51.0150   21.5540   14.4210 P.3   1321  INH1321     0.3900
     21  O4        51.7890   22.7320   14.0080 O.2   1321  INH1321    -0.6320
     22  O5        51.8630   20.5800   15.1460 O.3   1321  INH1321    -0.3070
     23  H         51.7370   19.6960   14.7680 H     1321  INH1321     0.2220
     24  O3        50.3500   20.9090   13.2560 O.3   1321  INH1321    -0.3070
     25  H         49.9200   21.5880   12.7120 H     1321  INH1321     0.2220
@<TRIPOS>BOND
     1    12    11    1
     2    13    11    1
     3    11    14    1
     4    11    10    1
     5    10     7    1
     6     7     6   ar
     7     7     8   ar
     8     6     5   ar
     9     8     9   ar
    10    25    24    1
    11     5     4   ar
    12    24    20    1
    13     9     4   ar
    14     4     1    1
    15    21    20    2
    16    16    15    1
    17    20    22    1
    18    20    19    1
    19    23    22    1
    20    15     1    1
    21    15    17    1
    22    18    19    1
    23    18    17    1
    24     1     3    2
    25     1     2    2
