@<TRIPOS>MOLECULE
/tmp/ewbell/vina_2cli_2cli_lig/vina/vina4.pdbqt
 25 25 0 0 0
SMALL
GASTEIGER

@<TRIPOS>ATOM
      1  S1        49.2520   27.1520   14.7210 S.O2  1321  INH1321     0.2580
      2  O6        48.4300   25.9250   14.6200 O.2   1321  INH1321    -0.2010
      3  O7        48.8210   28.0270   15.8440 O.2   1321  INH1321    -0.2010
      4  C4        48.9950   28.0860   13.2040 C.ar  1321  INH1321     0.0790
      5  C3        49.5890   29.3330   13.0700 C.ar  1321  INH1321     0.0280
      6  C2        49.4620   30.2370   11.8900 C.ar  1321  INH1321     0.0380
      7  C1        48.6320   29.6780   10.8140 C.ar  1321  INH1321     0.0780
      8  C6        47.9820   28.3850   10.8840 C.ar  1321  INH1321     0.0380
      9  C5        48.1480   27.5680   12.0420 C.ar  1321  INH1321     0.0280
     10  O1        48.3260   30.3220    9.5860 O.3   1321  INH1321    -0.2550
     11  C7        46.9390   30.4450    9.0790 C.3   1321  INH1321     0.5300
     12  F2        46.4230   31.6840    9.2910 F     1321  INH1321    -0.1440
     13  F1        46.9750   30.3420    7.7550 F     1321  INH1321    -0.1440
     14  F3        46.0680   29.5240    9.5670 F     1321  INH1321    -0.1440
     15  N1        50.9220   26.8240   14.9950 N.3   1321  INH1321    -0.3130
     16  H5        51.6130   27.5380   14.8880 H     1321  INH1321     0.1720
     17  C8        51.2980   25.4480   15.3950 C.3   1321  INH1321     0.1590
     18  C9        52.2920   24.9470   14.4980 C.3   1321  INH1321     0.2000
     19  O2        51.7470   23.8470   13.7900 O.3   1321  INH1321    -0.2950
     20  P1        50.9150   22.7300   14.6340 P.3   1321  INH1321     0.3900
     21  O4        51.5320   22.6510   15.9650 O.2   1321  INH1321    -0.6320
     22  O5        49.5240   23.2290   14.7150 O.3   1321  INH1321    -0.3070
     23  H         49.5300   24.1650   14.9710 H     1321  INH1321     0.2220
     24  O3        50.9650   21.4150   13.9380 O.3   1321  INH1321    -0.3070
     25  H         51.4500   21.5090   13.1030 H     1321  INH1321     0.2220
@<TRIPOS>BOND
     1    13    11    1
     2    11    12    1
     3    11    14    1
     4    11    10    1
     5    10     7    1
     6     7     8   ar
     7     7     6   ar
     8     8     9   ar
     9     6     5   ar
    10     9     4   ar
    11     5     4   ar
    12    25    24    1
    13     4     1    1
    14    19    18    1
    15    19    20    1
    16    24    20    1
    17    18    17    1
    18     2     1    2
    19    20    22    1
    20    20    21    2
    21    22    23    1
    22     1    15    1
    23     1     3    2
    24    16    15    1
    25    15    17    1
