@<TRIPOS>MOLECULE
/tmp/ewbell/vina_2cli_2cli_lig/vina/vina5.pdbqt
 25 25 0 0 0
SMALL
GASTEIGER

@<TRIPOS>ATOM
      1  S1        57.2910   22.5770    0.3690 S.O2  1321  INH1321     0.2580
      2  O6        58.4860   21.8870   -0.1660 O.2   1321  INH1321    -0.2010
      3  O7        56.7000   23.5240   -0.6140 O.2   1321  INH1321    -0.2010
      4  C4        57.8330   23.5580    1.7770 C.ar  1321  INH1321     0.0790
      5  C3        58.9970   24.3070    1.6710 C.ar  1321  INH1321     0.0280
      6  C2        59.5890   25.1540    2.7450 C.ar  1321  INH1321     0.0380
      7  C1        58.8040   25.1540    3.9880 C.ar  1321  INH1321     0.0780
      8  C6        57.5820   24.3990    4.1710 C.ar  1321  INH1321     0.0380
      9  C5        57.0670   23.6090    3.1000 C.ar  1321  INH1321     0.0280
     10  O1        59.1370   25.8570    5.1760 O.3   1321  INH1321    -0.2550
     11  C7        58.6380   27.2240    5.4550 C.3   1321  INH1321     0.5300
     12  F2        58.4650   27.4470    6.7840 F     1321  INH1321    -0.1440
     13  F1        59.5880   28.0850    5.1120 F     1321  INH1321    -0.1440
     14  F3        57.4900   27.5570    4.8080 F     1321  INH1321    -0.1440
     15  N1        56.0230   21.4910    0.7970 N.3   1321  INH1321    -0.3130
     16  H5        56.2220   20.5910    1.1840 H     1321  INH1321     0.1720
     17  C8        54.6280   21.9360    0.5740 C.3   1321  INH1321     0.1590
     18  C9        53.8670   21.7350    1.7680 C.3   1321  INH1321     0.2000
     19  O2        54.0440   22.8610    2.6100 O.3   1321  INH1321    -0.2950
     20  P1        52.8020   23.9030    2.7640 P.3   1321  INH1321     0.3900
     21  O4        52.8980   24.4880    4.1080 O.2   1321  INH1321    -0.6320
     22  O5        52.9950   24.9290    1.7150 O.3   1321  INH1321    -0.3070
     23  H         53.9000   25.2740    1.7630 H     1321  INH1321     0.2220
     24  O3        51.5070   23.1930    2.5770 O.3   1321  INH1321    -0.3070
     25  H         51.6370   22.4310    1.9900 H     1321  INH1321     0.2220
@<TRIPOS>BOND
     1     3     1    2
     2     2     1    2
     3     1    15    1
     4     1     4    1
     5    17    15    1
     6    17    18    1
     7    15    16    1
     8     5     4   ar
     9     5     6   ar
    10    22    23    1
    11    22    20    1
    12    18    19    1
    13     4     9   ar
    14    25    24    1
    15    24    20    1
    16    19    20    1
    17     6     7   ar
    18    20    21    2
    19     9     8   ar
    20     7     8   ar
    21     7    10    1
    22    14    11    1
    23    13    11    1
    24    10    11    1
    25    11    12    1
