@<TRIPOS>MOLECULE
/tmp/ewbell/vina_2cli_2cli_lig/vina/vina1.pdbqt
 25 25 0 0 0
SMALL
GASTEIGER

@<TRIPOS>ATOM
      1  S1        49.1420   26.9080   14.9390 S.O2  1321  INH1321     0.2580
      2  O6        50.2690   27.8150   15.2550 O.2   1321  INH1321    -0.2010
      3  O7        48.0400   27.0110   15.9330 O.2   1321  INH1321    -0.2010
      4  C4        49.7760   25.2260   15.0360 C.ar  1321  INH1321     0.0790
      5  C3        51.0880   24.9760   14.6590 C.ar  1321  INH1321     0.0280
      6  C2        51.7570   23.6430   14.6630 C.ar  1321  INH1321     0.0380
      7  C1        50.8880   22.5550   15.1340 C.ar  1321  INH1321     0.0780
      8  C6        49.5110   22.7420   15.5430 C.ar  1321  INH1321     0.0380
      9  C5        48.9320   24.0460   15.5190 C.ar  1321  INH1321     0.0280
     10  O1        51.2540   21.1860   15.2280 O.3   1321  INH1321    -0.2550
     11  C7        51.2510   20.2830   14.0530 C.3   1321  INH1321     0.5300
     12  F2        50.2650   20.5900   13.1710 F     1321  INH1321    -0.1440
     13  F1        52.3670   20.5010   13.3660 F     1321  INH1321    -0.1440
     14  F3        51.1700   18.9600   14.3490 F     1321  INH1321    -0.1440
     15  N1        48.4250   27.2330   13.4060 N.3   1321  INH1321    -0.3130
     16  H5        48.5380   26.6030   12.6380 H     1321  INH1321     0.1720
     17  C8        47.6340   28.4780   13.2650 C.3   1321  INH1321     0.1590
     18  C9        46.8520   28.4120   12.0700 C.3   1321  INH1321     0.2000
     19  O2        47.7180   28.1530   10.9790 O.3   1321  INH1321    -0.2950
     20  P1        48.0960   29.3930    9.9920 P.3   1321  INH1321     0.3900
     21  O4        46.9390   30.2980    9.9780 O.2   1321  INH1321    -0.6320
     22  O5        49.2830   30.0450   10.5890 O.3   1321  INH1321    -0.3070
     23  H         49.0020   30.6320   11.3080 H     1321  INH1321     0.2220
     24  O3        48.4010   28.8880    8.6250 O.3   1321  INH1321    -0.3070
     25  H         47.5780   28.6210    8.1870 H     1321  INH1321     0.2220
@<TRIPOS>BOND
     1    25    24    1
     2    24    20    1
     3    21    20    2
     4    20    22    1
     5    20    19    1
     6    22    23    1
     7    19    18    1
     8    18    17    1
     9    16    15    1
    10    12    11    1
    11    17    15    1
    12    13    11    1
    13    15     1    1
    14    11    14    1
    15    11    10    1
    16     5     6   ar
    17     5     4   ar
    18     6     7   ar
    19     1     4    1
    20     1     2    2
    21     1     3    2
    22     4     9   ar
    23     7    10    1
    24     7     8   ar
    25     9     8   ar
