@<TRIPOS>MOLECULE
./ligand/1uz1_lig.pdb
 22 22 0 0 0
SMALL
GASTEIGER

@<TRIPOS>ATOM
      1  O1        -1.5610   10.6260    6.7960 O.3   446  INH446     -0.3883
      2  C1        -1.1240   10.5480    8.1480 C.3   446  INH446      0.0959
      3  C2        -0.4190   11.8890    8.4310 C.3   446  INH446      0.1568
      4  O2         0.8280   12.0360    7.7460 O.3   446  INH446     -0.3800
      5  C3        -0.1070   12.0550    9.9230 C.2   446  INH446      0.2442
      6  N1        -0.6710   11.2010   10.8100 N.am  446  INH446     -0.3127
      7  C4        -1.5830   10.0950   10.5180 C.3   446  INH446      0.0190
      8  C5        -2.2760   10.3720    9.1700 C.3   446  INH446      0.0266
      9  C6        -3.2460    9.2490    8.8270 C.3   446  INH446      0.0509
     10  O3        -2.5440    8.0100    8.9160 O.3   446  INH446     -0.3946
     11  O4         0.6250   12.9670   10.2500 O.2   446  INH446     -0.2729
     12  H1        -0.8090   10.7330    6.2260 H     446  INH446      0.2099
     13  H2        -0.4200    9.7100    8.2580 H     446  INH446      0.0628
     14  H3        -1.0950   12.6960    8.1110 H     446  INH446      0.0717
     15  H4         1.2100   12.8790    7.9610 H     446  INH446      0.2105
     16  H5        -0.4380   11.3420   11.7720 H     446  INH446      0.1488
     17  H6        -2.3380   10.0170   11.3140 H     446  INH446      0.0466
     18  H7        -1.0170    9.1540   10.4570 H     446  INH446      0.0466
     19  H8        -2.8480   11.3090    9.2310 H     446  INH446      0.0364
     20  H9        -3.6290    9.3870    7.8050 H     446  INH446      0.0561
     21  H10       -4.0860    9.2530    9.5370 H     446  INH446      0.0561
     22  H11       -3.1340    7.2960    8.7050 H     446  INH446      0.2094
@<TRIPOS>BOND
     1     1    12    1
     2     1     2    1
     3     2    13    1
     4     2     8    1
     5     2     3    1
     6     3    14    1
     7     3     5    1
     8     3     4    1
     9     4    15    1
    10     5    11    2
    11     5     6   am
    12     6    16    1
    13     6     7    1
    14     7    18    1
    15     7    17    1
    16     7     8    1
    17     8    19    1
    18     8     9    1
    19     9    21    1
    20     9    20    1
    21     9    10    1
    22    10    22    1
