@<TRIPOS>MOLECULE
/tmp/ewbell/vina_1uz1_1uz1_lig/vina/vina2.pdbqt
 15 15 0 0 0
SMALL
GASTEIGER

@<TRIPOS>ATOM
      1  C1        -1.5660    9.9290   10.7760 C.3   446  INH446      0.1630
      2  C2        -1.2700   10.7890    9.5310 C.3   446  INH446      0.2390
      3  C3        -0.9410    9.9170    8.3130 C.2   446  INH446      0.2490
      4  N1        -0.7010    8.5970    8.4970 N.am  446  INH446     -0.3580
      5  C4        -0.7100    7.8630    9.7620 C.3   446  INH446      0.1320
      6  C5        -0.4550    8.8580   10.9100 C.3   446  INH446      0.0590
      7  O4        -0.8900   10.4590    7.2270 O.2   446  INH446     -0.2710
      8  H5        -0.4940    8.0650    7.6760 H     446  INH446      0.1620
      9  C6        -0.4450    8.1360   12.2510 C.3   446  INH446      0.1730
     10  O3        -1.7800    8.1110   12.7550 O.3   446  INH446     -0.4000
     11  H11       -2.2470    7.3740   12.3780 H     446  INH446      0.2090
     12  O1        -1.6190   10.8440   11.8650 O.3   446  INH446     -0.3920
     13  H1        -1.6340   11.7330   11.5320 H     446  INH446      0.2100
     14  O2        -2.3640   11.6230    9.1380 O.3   446  INH446     -0.3840
     15  H4        -2.9400   11.7600    9.8810 H     446  INH446      0.2100
@<TRIPOS>BOND
     1     7     3    2
     2     8     4    1
     3     3     4   am
     4     3     2    1
     5     4     5    1
     6    14     2    1
     7    14    15    1
     8     2     1    1
     9     5     6    1
    10     1     6    1
    11     1    12    1
    12     6     9    1
    13    13    12    1
    14     9    10    1
    15    11    10    1
