@<TRIPOS>MOLECULE
/tmp/ewbell/vina_1uz1_1uz1_lig/vina/vina4.pdbqt
 15 15 0 0 0
SMALL
GASTEIGER

@<TRIPOS>ATOM
      1  C1        -2.7280    5.9460   15.7150 C.3   446  INH446      0.1630
      2  C2        -2.4970    6.7750   16.9940 C.3   446  INH446      0.2390
      3  C3        -1.1750    6.3990   17.6750 C.2   446  INH446      0.2490
      4  N1        -0.5230    5.2830   17.2700 N.am  446  INH446     -0.3580
      5  C4        -0.9350    4.3470   16.2240 C.3   446  INH446      0.1320
      6  C5        -2.4610    4.4550   16.0410 C.3   446  INH446      0.0590
      7  O4        -0.7770    7.1140   18.5710 O.2   446  INH446     -0.2710
      8  H5         0.3360    5.0760   17.7370 H     446  INH446      0.1620
      9  C6        -2.9400    3.4880   14.9650 C.3   446  INH446      0.1730
     10  O3        -4.3650    3.4340   15.0150 O.3   446  INH446     -0.4000
     11  H11       -4.7250    3.8370   14.2340 H     446  INH446      0.2090
     12  O1        -4.0690    6.2190   15.3230 O.3   446  INH446     -0.3920
     13  H1        -4.0670    6.7160   14.5140 H     446  INH446      0.2100
     14  O2        -2.4340    8.1850   16.7590 O.3   446  INH446     -0.3840
     15  H4        -1.8980    8.5940   17.4280 H     446  INH446      0.2100
@<TRIPOS>BOND
     1    11    10    1
     2    13    12    1
     3     9    10    1
     4     9     6    1
     5    12     1    1
     6     1     6    1
     7     1     2    1
     8     6     5    1
     9     5     4    1
    10    14     2    1
    11    14    15    1
    12     2     3    1
    13     4     3   am
    14     4     8    1
    15     3     7    2
