@<TRIPOS>MOLECULE
/tmp/ewbell/vina_1uz1_1uz1_lig/vina/vina3.pdbqt
 15 15 0 0 0
SMALL
GASTEIGER

@<TRIPOS>ATOM
      1  C1        -1.4230    6.7790   16.3420 C.3   446  INH446      0.1630
      2  C2        -2.8460    7.3060   16.0690 C.3   446  INH446      0.2390
      3  C3        -3.8840    6.5970   16.9460 C.2   446  INH446      0.2490
      4  N1        -3.5190    5.4830   17.6250 N.am  446  INH446     -0.3580
      5  C4        -2.2060    4.8390   17.6280 C.3   446  INH446      0.1320
      6  C5        -1.4630    5.2300   16.3360 C.3   446  INH446      0.0590
      7  O4        -5.0070    7.0570   16.9780 O.2   446  INH446     -0.2710
      8  H5        -4.2250    5.0540   18.1870 H     446  INH446      0.1620
      9  C6        -0.0900    4.5720   16.2890 C.3   446  INH446      0.1730
     10  O3         0.8290    5.4050   16.9950 O.3   446  INH446     -0.4000
     11  H11        1.7030    5.2820   16.6440 H     446  INH446      0.2090
     12  O1        -0.6080    7.3380   15.3180 O.3   446  INH446     -0.3920
     13  H1        -1.0460    7.2470   14.4800 H     446  INH446      0.2100
     14  O2        -2.9970    8.7050   16.3280 O.3   446  INH446     -0.3840
     15  H4        -2.1960    9.1590   16.0940 H     446  INH446      0.2100
@<TRIPOS>BOND
     1    13    12    1
     2    12     1    1
     3     2    14    1
     4     2     1    1
     5     2     3    1
     6    15    14    1
     7     9     6    1
     8     9    10    1
     9     6     1    1
    10     6     5    1
    11    11    10    1
    12     3     7    2
    13     3     4   am
    14     4     5    1
    15     4     8    1
