@<TRIPOS>MOLECULE
/tmp/ewbell/vina_1uz1_1uz1_lig/vina/vina1.pdbqt
 15 15 0 0 0
SMALL
GASTEIGER

@<TRIPOS>ATOM
      1  C1        -1.0510   10.5810    8.1830 C.3   446  INH446      0.1630
      2  C2        -0.1670   11.7690    8.6090 C.3   446  INH446      0.2390
      3  C3         0.1030   11.7560   10.1180 C.2   446  INH446      0.2490
      4  N1        -0.6200   10.9240   10.9060 N.am  446  INH446     -0.3580
      5  C4        -1.6730   10.0000   10.4870 C.3   446  INH446      0.1320
      6  C5        -2.2590   10.4950    9.1510 C.3   446  INH446      0.0590
      7  O4         0.9480   12.5140   10.5490 O.2   446  INH446     -0.2710
      8  H5        -0.4100   10.9440   11.8830 H     446  INH446      0.1620
      9  C6        -3.3710    9.5670    8.6780 C.3   446  INH446      0.1730
     10  O3        -2.8710    8.2300    8.6870 O.3   446  INH446     -0.4000
     11  H11       -1.9670    8.2320    8.9810 H     446  INH446      0.2090
     12  O1        -1.4140   10.8420    6.8320 O.3   446  INH446     -0.3920
     13  H1        -0.8550   10.3390    6.2520 H     446  INH446      0.2100
     14  O2         1.1160   11.7830    7.9760 O.3   446  INH446     -0.3840
     15  H4         1.0740   12.3080    7.1850 H     446  INH446      0.2100
@<TRIPOS>BOND
     1    13    12    1
     2    12     1    1
     3    15    14    1
     4    14     2    1
     5     1     2    1
     6     1     6    1
     7     2     3    1
     8     9    10    1
     9     9     6    1
    10    10    11    1
    11     6     5    1
    12     3     7    2
    13     3     4   am
    14     5     4    1
    15     4     8    1
