@<TRIPOS>MOLECULE
/tmp/ewbell/vina_1uz1_1uz1_lig/vina/vina5.pdbqt
 15 15 0 0 0
SMALL
GASTEIGER

@<TRIPOS>ATOM
      1  C1        -0.5980    9.7840   10.2640 C.3   446  INH446      0.1630
      2  C2        -0.2100   10.0090    8.7890 C.3   446  INH446      0.2390
      3  C3        -1.4480   10.2210    7.9090 C.2   446  INH446      0.2490
      4  N1        -2.6710    9.9490    8.4220 N.am  446  INH446     -0.3580
      5  C4        -2.9800    9.4520    9.7620 C.3   446  INH446      0.1320
      6  C5        -1.7360    8.7320   10.3180 C.3   446  INH446      0.0590
      7  O4        -1.2740   10.6110    6.7720 O.2   446  INH446     -0.2710
      8  H5        -3.4510   10.1040    7.8160 H     446  INH446      0.1620
      9  C6        -2.0120    8.1870   11.7130 C.3   446  INH446      0.1730
     10  O3        -1.4480    9.0880   12.6650 O.3   446  INH446     -0.4000
     11  H11       -0.8770    9.7030   12.2200 H     446  INH446      0.2090
     12  O1         0.5990    9.3720   10.9140 O.3   446  INH446     -0.3920
     13  H1         0.6680    8.4250   10.8780 H     446  INH446      0.2100
     14  O2         0.6230   11.1540    8.5850 O.3   446  INH446     -0.3840
     15  H4         1.5210   10.9350    8.8030 H     446  INH446      0.2100
@<TRIPOS>BOND
     1     7     3    2
     2     8     4    1
     3     3     4   am
     4     3     2    1
     5     4     5    1
     6    14     2    1
     7    14    15    1
     8     2     1    1
     9     5     6    1
    10     1     6    1
    11     1    12    1
    12     6     9    1
    13    13    12    1
    14     9    10    1
    15    11    10    1
