@<TRIPOS>MOLECULE
./ligand/2ojg_lig.pdb
 37 39 0 0 0
SMALL
GASTEIGER

@<TRIPOS>ATOM
      1  C1        -9.1600   13.4150   41.2390 C.3   342  INH342      0.0032
      2  N1       -10.6260   13.2630   41.1770 N.am  342  INH342     -0.3024
      3  C2       -11.4360   14.2250   41.9340 C.3   342  INH342      0.0032
      4  C3       -11.1760   12.2240   40.4120 C.2   342  INH342      0.2624
      5  O1       -10.4080   11.4850   39.8100 O.2   342  INH342     -0.2684
      6  C4       -12.6640   11.9330   40.2690 C.ar  342  INH342      0.1026
      7  C5       -13.7000   12.3210   41.0960 C.ar  342  INH342     -0.0227
      8  C6       -14.9110   11.8230   40.5940 C.ar  342  INH342      0.0184
      9  C7       -14.5920   11.1230   39.4520 C.ar  342  INH342      0.0115
     10  N2       -13.2440   11.1880   39.2590 N.ar  342  INH342     -0.3565
     11  C8       -16.2930   12.0050   41.1940 C.ar  342  INH342      0.0749
     12  N3       -17.2510   11.0900   41.1270 N.ar  342  INH342     -0.2763
     13  N4       -18.3840   11.5640   41.7800 N.ar  342  INH342     -0.1811
     14  C9       -18.1310   12.7850   42.2610 C.ar  342  INH342      0.0575
     15  C10      -16.8370   13.1240   41.9330 C.ar  342  INH342      0.0272
     16  C11      -16.1830   14.4280   42.3110 C.ar  342  INH342     -0.0143
     17  C12      -15.4870   15.2460   41.3680 C.ar  342  INH342     -0.0539
     18  C13      -14.8960   16.4610   41.7790 C.ar  342  INH342     -0.0612
     19  C14      -15.0050   16.8690   43.1270 C.ar  342  INH342     -0.0617
     20  C15      -15.6960   16.0630   44.0740 C.ar  342  INH342     -0.0612
     21  C16      -16.2800   14.8590   43.6720 C.ar  342  INH342     -0.0539
     22  H1        -8.9070   14.2740   41.8780 H     342  INH342      0.0428
     23  H2        -8.7660   13.5830   40.2260 H     342  INH342      0.0428
     24  H3        -8.7140   12.5010   41.6590 H     342  INH342      0.0428
     25  H4       -12.5030   13.9940   41.7980 H     342  INH342      0.0428
     26  H5       -11.2320   15.2430   41.5700 H     342  INH342      0.0428
     27  H6       -11.1800   14.1600   43.0020 H     342  INH342      0.0428
     28  H7       -13.5930   12.9210   41.9990 H     342  INH342      0.0647
     29  H8       -15.3000   10.6030   38.8090 H     342  INH342      0.0813
     30  H9       -12.7350   10.7490   38.4790 H     342  INH342      0.1655
     31  H10      -17.1690   10.1730   40.6650 H     342  INH342      0.1889
     32  H11      -18.8300   13.4070   42.8180 H     342  INH342      0.0854
     33  H12      -15.4130   14.9320   40.3330 H     342  INH342      0.0624
     34  H13      -14.3620   17.0770   41.0640 H     342  INH342      0.0618
     35  H14      -14.5580   17.8050   43.4430 H     342  INH342      0.0618
     36  H15      -15.7690   16.3830   45.1070 H     342  INH342      0.0618
     37  H16      -16.8090   14.2480   44.3950 H     342  INH342      0.0624
@<TRIPOS>BOND
     1     1    24    1
     2     1    23    1
     3     1    22    1
     4     1     2    1
     5     2     4   am
     6     2     3    1
     7     3    27    1
     8     3    26    1
     9     3    25    1
    10     4     6    1
    11     4     5    2
    12     6    10   ar
    13     6     7   ar
    14     7    28    1
    15     7     8   ar
    16     8    11    1
    17     8     9   ar
    18     9    29    1
    19     9    10   ar
    20    10    30    1
    21    11    15   ar
    22    11    12   ar
    23    12    31    1
    24    12    13   ar
    25    13    14   ar
    26    14    32    1
    27    14    15   ar
    28    15    16    1
    29    16    21   ar
    30    16    17   ar
    31    17    33    1
    32    17    18   ar
    33    18    34    1
    34    18    19   ar
    35    19    35    1
    36    19    20   ar
    37    20    36    1
    38    20    21   ar
    39    21    37    1
