@<TRIPOS>MOLECULE
/tmp/ewbell/vina_2ojg_2ojg_lig/vina/vina3.pdbqt
 24 26 0 0 0
SMALL
GASTEIGER

@<TRIPOS>ATOM
      1  C8       -16.2020   14.3370   43.7800 C.2   342  INH342      0.0720
      2  N3       -17.1640   14.2490   44.6890 N.pl3 342  INH342     -0.2990
      3  N4       -17.8830   13.0760   44.4840 N.3   342  INH342     -0.3100
      4  H4       -18.6770   12.7630   45.0430 H     342  INH342      0.1860
      5  C9       -17.3660   12.4250   43.4370 C.3   342  INH342      0.1210
      6  C10      -16.3110   13.1610   42.9440 C.2   342  INH342      0.0200
      7  H10      -17.3510   14.9400   45.4300 H     342  INH342      0.1870
      8  C6       -15.2250   15.4950   43.6960 C.ar  342  INH342      0.0110
      9  C5       -13.9880   15.6050   44.3470 C.ar  342  INH342      0.0500
     10  C4       -13.3950   16.8060   44.0090 C.ar  342  INH342      0.1010
     11  N2       -14.2710   17.4300   43.1410 N.ar  342  INH342     -0.3610
     12  C7       -15.3710   16.6460   42.9540 C.ar  342  INH342      0.1020
     13  H9       -14.1170   18.3490   42.7020 H     342  INH342      0.1650
     14  C3       -12.0480   17.3580   44.4570 C.2   342  INH342      0.2690
     15  N1       -11.8700   18.4180   45.3580 N.am  342  INH342     -0.3550
     16  C1       -10.5010   18.8460   45.7050 C.3   342  INH342      0.1520
     17  C2       -12.9820   19.1390   45.9880 C.3   342  INH342      0.1520
     18  O1       -11.0490   16.8260   43.9910 O.2   342  INH342     -0.2660
     19  C11      -15.4790   12.7530   41.7550 C.ar  342  INH342     -0.0220
     20  C16      -16.1070   11.9760   40.7310 C.ar  342  INH342      0.0120
     21  C15      -15.3810   11.5680   39.6100 C.ar  342  INH342      0.0010
     22  C14      -14.0080   11.9200   39.4850 C.ar  342  INH342      0.0000
     23  C13      -13.3690   12.6880   40.4840 C.ar  342  INH342      0.0010
     24  C12      -14.0990   13.1010   41.6200 C.ar  342  INH342      0.0120
@<TRIPOS>BOND
     1    22    21   ar
     2    22    23   ar
     3    21    20   ar
     4    23    24   ar
     5    20    19   ar
     6    24    19   ar
     7    19     6    1
     8    13    11    1
     9     6     5    1
    10     6     1    2
    11    12    11   ar
    12    12     8   ar
    13    11    10   ar
    14     5     3    1
    15     8     1    1
    16     8     9   ar
    17     1     2    1
    18    18    14    2
    19    10     9   ar
    20    10    14    1
    21    14    15   am
    22     3     2    1
    23     3     4    1
    24     2     7    1
    25    15    16    1
    26    15    17    1
