@<TRIPOS>MOLECULE
/tmp/ewbell/vina_2ojg_2ojg_lig/vina/vina2.pdbqt
 24 26 0 0 0
SMALL
GASTEIGER

@<TRIPOS>ATOM
      1  C8       -16.0900   14.3870   43.7330 C.2   342  INH342      0.0720
      2  N3       -17.1020   14.4660   44.5860 N.pl3 342  INH342     -0.2990
      3  N4       -18.0060   13.4430   44.3240 N.3   342  INH342     -0.3100
      4  H4       -18.8740   13.2730   44.8330 H     342  INH342      0.1860
      5  C9       -17.5560   12.7170   43.2950 C.3   342  INH342      0.1210
      6  C10      -16.3600   13.2550   42.8730 C.2   342  INH342      0.0200
      7  H10      -17.2030   15.1750   45.3270 H     342  INH342      0.1870
      8  C6       -14.9190   15.3520   43.7210 C.ar  342  INH342      0.0110
      9  C5       -13.6340   15.1270   44.2360 C.ar  342  INH342      0.0500
     10  C4       -12.8510   16.2440   44.0250 C.ar  342  INH342      0.1010
     11  N2       -13.6590   17.1560   43.3720 N.ar  342  INH342     -0.3610
     12  C7       -14.9010   16.6220   43.1910 C.ar  342  INH342      0.1020
     13  H9       -13.3680   18.0960   43.0680 H     342  INH342      0.1650
     14  C3       -11.3910   16.4640   44.3980 C.2   342  INH342      0.2690
     15  N1       -10.3040   15.7620   43.8560 N.am  342  INH342     -0.3550
     16  C1        -8.9390   16.0850   44.3110 C.3   342  INH342      0.1520
     17  C2       -10.4470   14.7070   42.8450 C.3   342  INH342      0.1520
     18  O1       -11.1580   17.3260   45.2360 O.2   342  INH342     -0.2660
     19  C11      -15.5490   12.7130   41.7230 C.ar  342  INH342     -0.0220
     20  C16      -16.2260   11.9350   40.7320 C.ar  342  INH342      0.0120
     21  C15      -15.5210   11.4040   39.6490 C.ar  342  INH342      0.0010
     22  C14      -14.1210   11.6320   39.5310 C.ar  342  INH342      0.0000
     23  C13      -13.4350   12.4000   40.4980 C.ar  342  INH342      0.0010
     24  C12      -14.1430   12.9360   41.5960 C.ar  342  INH342      0.0120
@<TRIPOS>BOND
     1    22    21   ar
     2    22    23   ar
     3    21    20   ar
     4    23    24   ar
     5    20    19   ar
     6    24    19   ar
     7    19     6    1
     8    17    15    1
     9     6     5    1
    10     6     1    2
    11    13    11    1
    12    12    11   ar
    13    12     8   ar
    14     5     3    1
    15    11    10   ar
    16     8     1    1
    17     8     9   ar
    18     1     2    1
    19    15    16    1
    20    15    14   am
    21    10     9   ar
    22    10    14    1
    23     3     2    1
    24     3     4    1
    25    14    18    2
    26     2     7    1
