@<TRIPOS>MOLECULE
/tmp/ewbell/vina_2ojg_2ojg_lig/vina/vina5.pdbqt
 24 26 0 0 0
SMALL
GASTEIGER

@<TRIPOS>ATOM
      1  C8       -12.4990   15.9850   43.8590 C.2   342  INH342      0.0720
      2  N3       -12.4090   16.7150   44.9630 N.pl3 342  INH342     -0.2990
      3  N4       -11.0760   16.8050   45.3470 N.3   342  INH342     -0.3100
      4  H4       -10.7270   17.3090   46.1630 H     342  INH342      0.1860
      5  C9       -10.3250   16.1240   44.4760 C.3   342  INH342      0.1210
      6  C10      -11.1520   15.5810   43.5170 C.2   342  INH342      0.0200
      7  H10      -13.2020   17.1470   45.4590 H     342  INH342      0.1870
      8  C6       -13.8090   15.6710   43.1610 C.ar  342  INH342      0.0110
      9  C5       -14.5410   14.4770   43.2370 C.ar  342  INH342      0.0500
     10  C4       -15.6810   14.5870   42.4650 C.ar  342  INH342      0.1010
     11  N2       -15.6490   15.8560   41.9190 N.ar  342  INH342     -0.3610
     12  C7       -14.5260   16.5070   42.3340 C.ar  342  INH342      0.1020
     13  H9       -16.3650   16.2510   41.2930 H     342  INH342      0.1650
     14  C3       -16.7820   13.5570   42.2480 C.2   342  INH342      0.2690
     15  N1       -16.7060   12.4660   41.3700 N.am  342  INH342     -0.3550
     16  C1       -17.8520   11.5430   41.2650 C.3   342  INH342      0.1520
     17  C2       -15.5320   12.1800   40.5360 C.3   342  INH342      0.1520
     18  O1       -17.8100   13.7000   42.8980 O.2   342  INH342     -0.2660
     19  C11      -10.6710   14.7350   42.3660 C.ar  342  INH342     -0.0220
     20  C16       -9.2930   14.3510   42.3450 C.ar  342  INH342      0.0120
     21  C15       -8.7940   13.5720   41.2990 C.ar  342  INH342      0.0010
     22  C14       -9.6570   13.1600   40.2450 C.ar  342  INH342      0.0000
     23  C13      -11.0210   13.5260   40.2480 C.ar  342  INH342      0.0010
     24  C12      -11.5290   14.3160   41.3030 C.ar  342  INH342      0.0120
@<TRIPOS>BOND
     1    22    23   ar
     2    22    21   ar
     3    23    24   ar
     4    17    15    1
     5    16    15    1
     6    13    11    1
     7    21    20   ar
     8    24    19   ar
     9    15    14   am
    10    11    12   ar
    11    11    10   ar
    12    14    10    1
    13    14    18    2
    14    12     8   ar
    15    20    19   ar
    16    19     6    1
    17    10     9   ar
    18     8     9   ar
    19     8     1    1
    20     6     1    2
    21     6     5    1
    22     1     2    1
    23     5     3    1
    24     2     3    1
    25     2     7    1
    26     3     4    1
