@<TRIPOS>MOLECULE
/tmp/ewbell/vina_2ojg_2ojg_lig/vina/vina1.pdbqt
 24 26 0 0 0
SMALL
GASTEIGER

@<TRIPOS>ATOM
      1  C8       -15.7770   11.9360   40.9700 C.2   342  INH342      0.0720
      2  N3       -16.5640   10.8920   40.7430 N.pl3 342  INH342     -0.2990
      3  N4       -17.7790   11.0830   41.3920 N.3   342  INH342     -0.3100
      4  H4       -18.5650   10.4330   41.3830 H     342  INH342      0.1860
      5  C9       -17.7510   12.2580   42.0320 C.3   342  INH342      0.1210
      6  C10      -16.5240   12.8450   41.8120 C.2   342  INH342      0.0200
      7  H10      -16.3140   10.0680   40.1770 H     342  INH342      0.1870
      8  C6       -14.3680   12.0630   40.4220 C.ar  342  INH342      0.0110
      9  C5       -13.2080   12.3880   41.1400 C.ar  342  INH342      0.0500
     10  C4       -12.1230   12.3960   40.2850 C.ar  342  INH342      0.1010
     11  N2       -12.6210   12.0670   39.0380 N.ar  342  INH342     -0.3610
     12  C7       -13.9680   11.8690   39.1180 C.ar  342  INH342      0.1020
     13  H9       -12.0600   11.9840   38.1790 H     342  INH342      0.1650
     14  C3       -10.6630   12.6800   40.6090 C.2   342  INH342      0.2690
     15  N1       -10.2080   13.6890   41.4700 N.am  342  INH342     -0.3550
     16  C1        -8.7580   13.8470   41.6940 C.3   342  INH342      0.1520
     17  C2       -11.1040   14.6130   42.1770 C.3   342  INH342      0.1520
     18  O1        -9.8270   11.9640   40.0710 O.2   342  INH342     -0.2660
     19  C11      -16.1120   14.1790   42.3800 C.ar  342  INH342     -0.0220
     20  C16      -15.6730   15.1900   41.4690 C.ar  342  INH342      0.0120
     21  C15      -15.2750   16.4420   41.9420 C.ar  342  INH342      0.0010
     22  C14      -15.3000   16.7150   43.3390 C.ar  342  INH342      0.0000
     23  C13      -15.7320   15.7310   44.2560 C.ar  342  INH342      0.0010
     24  C12      -16.1320   14.4620   43.7810 C.ar  342  INH342      0.0120
@<TRIPOS>BOND
     1    13    11    1
     2    11    12   ar
     3    11    10   ar
     4    12     8   ar
     5    18    14    2
     6     7     2    1
     7    10    14    1
     8    10     9   ar
     9     8     1    1
    10     8     9   ar
    11    14    15   am
    12     2     1    1
    13     2     3    1
    14     1     6    2
    15     4     3    1
    16     3     5    1
    17    20    21   ar
    18    20    19   ar
    19    15    16    1
    20    15    17    1
    21     6     5    1
    22     6    19    1
    23    21    22   ar
    24    19    24   ar
    25    22    23   ar
    26    24    23   ar
