@<TRIPOS>MOLECULE
/tmp/ewbell/vina_2ojg_2ojg_lig/vina/vina4.pdbqt
 24 26 0 0 0
SMALL
GASTEIGER

@<TRIPOS>ATOM
      1  C8       -13.7330   12.3140   40.2000 C.2   342  INH342      0.0720
      2  N3       -13.6160   11.4930   39.1650 N.pl3 342  INH342     -0.2990
      3  N4       -14.8470   10.8990   38.9080 N.3   342  INH342     -0.3100
      4  H4       -15.0370   10.2260   38.1660 H     342  INH342      0.1860
      5  C9       -15.7420   11.3540   39.7920 C.3   342  INH342      0.1210
      6  C10      -15.1110   12.2420   40.6350 C.2   342  INH342      0.0200
      7  H10      -12.7490   11.3190   38.6350 H     342  INH342      0.1870
      8  C6       -12.5820   13.1250   40.7660 C.ar  342  INH342      0.0110
      9  C5       -12.5190   13.7380   42.0260 C.ar  342  INH342      0.0500
     10  C4       -11.3020   14.3760   42.1680 C.ar  342  INH342      0.1010
     11  N2       -10.6140   14.1460   40.9910 N.ar  342  INH342     -0.3610
     12  C7       -11.3810   13.3970   40.1490 C.ar  342  INH342      0.1020
     13  H9        -9.6660   14.4880   40.7830 H     342  INH342      0.1650
     14  C3       -10.7770   15.1610   43.3620 C.2   342  INH342      0.2690
     15  N1       -11.4980   16.1360   44.0680 N.am  342  INH342     -0.3550
     16  C1       -10.8610   16.8160   45.2120 C.3   342  INH342      0.1520
     17  C2       -12.8730   16.5260   43.7320 C.3   342  INH342      0.1520
     18  O1        -9.6360   14.9130   43.7290 O.2   342  INH342     -0.2660
     19  C11      -15.7940   12.9590   41.7720 C.ar  342  INH342     -0.0220
     20  C16      -16.6420   12.1960   42.6340 C.ar  342  INH342      0.0120
     21  C15      -17.3030   12.8110   43.7000 C.ar  342  INH342      0.0010
     22  C14      -17.1370   14.2060   43.9270 C.ar  342  INH342      0.0000
     23  C13      -16.3020   14.9780   43.0890 C.ar  342  INH342      0.0010
     24  C12      -15.6350   14.3600   42.0090 C.ar  342  INH342      0.0120
@<TRIPOS>BOND
     1     4     3    1
     2     7     2    1
     3     3     2    1
     4     3     5    1
     5     2     1    1
     6     5     6    1
     7    12     8   ar
     8    12    11   ar
     9     1     6    2
    10     1     8    1
    11     6    19    1
    12     8     9   ar
    13    13    11    1
    14    11    10   ar
    15    19    24   ar
    16    19    20   ar
    17    24    23   ar
    18     9    10   ar
    19    10    14    1
    20    20    21   ar
    21    23    22   ar
    22    14    18    2
    23    14    15   am
    24    21    22   ar
    25    17    15    1
    26    15    16    1
