@<TRIPOS>MOLECULE
/tmp/ewbell/vina_3b3c_3b3c_lig/vina/vina2.pdbqt
 14 13 0 0 0
SMALL
GASTEIGER

@<TRIPOS>ATOM
      1  C1        34.5200   -3.4750   40.8290 C.3   297  INH297      0.3280
      2  P1        36.0310   -3.7710   39.8790 P.3   297  INH297      0.2690
      3  O3        37.0260   -3.9310   40.9780 O.2   297  INH297     -0.6520
      4  O2        35.8600   -4.9910   39.0070 O.3   297  INH297     -0.3280
      5  H         36.5990   -5.0470   38.3820 H     297  INH297      0.2200
      6  O1        36.3200   -2.4790   39.1260 O.3   297  INH297     -0.3280
      7  H         35.9140   -2.5190   38.2470 H     297  INH297      0.2200
      8  N1        34.8720   -2.5800   41.9210 N.3   297  INH297      0.0940
      9  H12       35.7920   -2.1980   41.7600 H     297  INH297      0.3140
     10  H11       34.2010   -1.8300   41.9710 H     297  INH297      0.3140
     11  C2        33.4150   -2.8760   39.9520 C.3   297  INH297      0.0510
     12  C3        32.8990   -1.5270   40.4720 C.3   297  INH297     -0.0200
     13  C5        31.4530   -1.5670   40.9740 C.3   297  INH297      0.0090
     14  C4        33.0700   -0.4470   39.4070 C.3   297  INH297      0.0090
@<TRIPOS>BOND
     1     7     6    1
     2     5     4    1
     3     4     2    1
     4     6     2    1
     5    14    12    1
     6     2     1    1
     7     2     3    2
     8    11    12    1
     9    11     1    1
    10    12    13    1
    11     1     8    1
    12     9     8    1
    13     8    10    1
