@<TRIPOS>MOLECULE
/tmp/ewbell/vina_3b3c_3b3c_lig/vina/vina5.pdbqt
 14 13 0 0 0
SMALL
GASTEIGER

@<TRIPOS>ATOM
      1  C1        36.0620   -3.7310   41.5500 C.3   297  INH297      0.3280
      2  P1        35.5260   -3.9020   39.8310 P.3   297  INH297      0.2690
      3  O3        34.5010   -4.9760   39.9630 O.2   297  INH297     -0.6520
      4  O2        34.9900   -2.5850   39.3250 O.3   297  INH297     -0.3280
      5  H         34.4040   -2.1960   39.9920 H     297  INH297      0.2200
      6  O1        36.7240   -4.4450   39.0630 O.3   297  INH297     -0.3280
      7  H         36.4840   -4.5610   38.1310 H     297  INH297      0.2200
      8  N1        35.3200   -2.6150   42.1190 N.3   297  INH297      0.0940
      9  H12       35.8080   -2.2660   42.9300 H     297  INH297      0.3140
     10  H11       35.2390   -1.8820   41.4340 H     297  INH297      0.3140
     11  C2        35.8220   -5.0210   42.3420 C.3   297  INH297      0.0510
     12  C3        36.9380   -5.3250   43.3510 C.3   297  INH297     -0.0200
     13  C5        36.6620   -4.7960   44.7600 C.3   297  INH297      0.0090
     14  C4        38.2770   -4.8050   42.8330 C.3   297  INH297      0.0090
@<TRIPOS>BOND
     1     7     6    1
     2     6     2    1
     3     4     2    1
     4     4     5    1
     5     2     3    2
     6     2     1    1
     7    10     8    1
     8     1     8    1
     9     1    11    1
    10     8     9    1
    11    11    12    1
    12    14    12    1
    13    12    13    1
