@<TRIPOS>MOLECULE
/tmp/ewbell/vina_3b3c_3b3c_lig/vina/vina3.pdbqt
 14 13 0 0 0
SMALL
GASTEIGER

@<TRIPOS>ATOM
      1  C1        35.2110   -3.1020   40.2420 C.3   297  INH297      0.3280
      2  P1        35.1060   -4.6790   41.1220 P.3   297  INH297      0.2690
      3  O3        34.4210   -4.2540   42.3770 O.2   297  INH297     -0.6520
      4  O2        34.3350   -5.6800   40.2970 O.3   297  INH297     -0.3280
      5  H         34.4040   -5.4470   39.3580 H     297  INH297      0.2200
      6  O1        36.5380   -5.0830   41.4470 O.3   297  INH297     -0.3280
      7  H         36.5320   -5.8460   42.0440 H     297  INH297      0.2200
      8  N1        36.3870   -3.1700   39.3870 N.3   297  INH297      0.0940
      9  H12       36.5940   -4.1340   39.1750 H     297  INH297      0.3140
     10  H11       36.2090   -2.6690   38.5310 H     297  INH297      0.3140
     11  C2        33.9430   -2.8320   39.4250 C.3   297  INH297      0.0510
     12  C3        33.1710   -1.5940   39.9030 C.3   297  INH297     -0.0200
     13  C5        31.7800   -1.9060   40.4600 C.3   297  INH297      0.0090
     14  C4        33.0840   -0.5590   38.7840 C.3   297  INH297      0.0090
@<TRIPOS>BOND
     1    10     8    1
     2    14    12    1
     3     9     8    1
     4     5     4    1
     5     8     1    1
     6    11    12    1
     7    11     1    1
     8    12    13    1
     9     1     2    1
    10     4     2    1
    11     2     6    1
    12     2     3    2
    13     6     7    1
