@<TRIPOS>MOLECULE
/tmp/ewbell/vina_3b3c_3b3c_lig/vina/vina4.pdbqt
 14 13 0 0 0
SMALL
GASTEIGER

@<TRIPOS>ATOM
      1  C1        34.9920   -2.9720   40.0270 C.3   297  INH297      0.3280
      2  P1        35.1810   -4.4160   41.1000 P.3   297  INH297      0.2690
      3  O3        33.9730   -5.2050   40.7210 O.2   297  INH297     -0.6520
      4  O2        36.4930   -5.1040   40.8120 O.3   297  INH297     -0.3280
      5  H         37.2180   -4.5920   41.2000 H     297  INH297      0.2200
      6  O1        35.0200   -3.9110   42.5270 O.3   297  INH297     -0.3280
      7  H         34.9680   -4.6650   43.1330 H     297  INH297      0.2200
      8  N1        36.2490   -2.8050   39.3120 N.3   297  INH297      0.0940
      9  H12       37.0110   -2.7780   39.9720 H     297  INH297      0.3140
     10  H11       36.3810   -3.5780   38.6790 H     297  INH297      0.3140
     11  C2        33.8180   -3.1450   39.0560 C.3   297  INH297      0.0510
     12  C3        32.7820   -2.0160   39.1580 C.3   297  INH297     -0.0200
     13  C5        33.3650   -0.6180   38.9410 C.3   297  INH297      0.0090
     14  C4        32.0440   -2.0930   40.4920 C.3   297  INH297      0.0090
@<TRIPOS>BOND
     1    10     8    1
     2    13    12    1
     3    11    12    1
     4    11     1    1
     5    12    14    1
     6     8     9    1
     7     8     1    1
     8     1     2    1
     9     3     2    2
    10     4     2    1
    11     4     5    1
    12     2     6    1
    13     6     7    1
