@<TRIPOS>MOLECULE
/tmp/ewbell/vina_3b3c_3b3c_lig/vina/vina1.pdbqt
 14 13 0 0 0
SMALL
GASTEIGER

@<TRIPOS>ATOM
      1  C1        34.4170   -2.9970   39.4100 C.3   297  INH297      0.3280
      2  P1        35.7290   -4.1270   39.9350 P.3   297  INH297      0.2690
      3  O3        34.9370   -5.1540   40.6700 O.2   297  INH297     -0.6520
      4  O2        36.4690   -4.6530   38.7300 O.3   297  INH297     -0.3280
      5  H         37.3890   -4.8440   38.9720 H     297  INH297      0.2200
      6  O1        36.5870   -3.3520   40.9270 O.3   297  INH297     -0.3280
      7  H         36.8470   -2.5040   40.5370 H     297  INH297      0.2200
      8  N1        33.8090   -3.5750   38.2210 N.3   297  INH297      0.0940
      9  H12       33.6070   -4.5490   38.3860 H     297  INH297      0.3140
     10  H11       32.9540   -3.0850   38.0100 H     297  INH297      0.3140
     11  C2        33.3810   -2.7880   40.5200 C.3   297  INH297      0.0510
     12  C3        32.1940   -1.9200   40.0800 C.3   297  INH297     -0.0200
     13  C5        32.5810   -0.4920   39.6890 C.3   297  INH297      0.0090
     14  C4        31.1150   -1.9110   41.1600 C.3   297  INH297      0.0090
@<TRIPOS>BOND
     1    10     8    1
     2     8     9    1
     3     8     1    1
     4     4     5    1
     5     4     2    1
     6     1     2    1
     7     1    11    1
     8    13    12    1
     9     2     3    2
    10     2     6    1
    11    12    11    1
    12    12    14    1
    13     7     6    1
