@<TRIPOS>MOLECULE
./ligand/1gx0_lig.pdb
 36 37 0 0 0
SMALL
GASTEIGER

@<TRIPOS>ATOM
      1  N1         2.6520   13.3320   43.2820 N.ar  291  INH291     -0.2715
      2  C1         2.7170   14.3280   42.2910 C.ar  291  INH291      0.3314
      3  N2         2.3500   15.6320   42.6440 N.ar  291  INH291     -0.2749
      4  C2         1.9050   16.1090   43.9020 C.ar  291  INH291      0.2539
      5  C3         1.8290   15.0530   44.9860 C.ar  291  INH291      0.0192
      6  H1         1.5070   15.2900   45.9890 H     291  INH291      0.0686
      7  C4         2.2270   13.6530   44.5880 C.ar  291  INH291      0.0171
      8  H2         2.1850   12.8690   45.3300 H     291  INH291      0.0813
      9  O1         3.0870   14.0710   41.1380 O.2   291  INH291     -0.2464
     10  O2         1.6290   17.3030   44.0120 O.2   291  INH291     -0.2677
     11  C5         3.0440   11.9280   42.9190 C.3   291  INH291      0.1679
     12  C6         4.5570   11.7180   42.6950 C.3   291  INH291      0.1286
     13  O3         4.8010   10.6840   41.7510 O.3   291  INH291     -0.3847
     14  C7         5.0200   11.3790   44.1080 C.3   291  INH291      0.1135
     15  C8         3.8930   10.4330   44.5910 C.3   291  INH291      0.1133
     16  O4         2.6950   11.0210   43.9910 O.3   291  INH291     -0.3456
     17  O5         6.2860   10.7180   43.9960 O.3   291  INH291     -0.3864
     18  C9         3.6580   10.3850   46.1410 C.3   291  INH291      0.0836
     19  O6         4.0440   11.6410   46.6530 O.3   291  INH291     -0.3245
     20  P1         5.3050   12.1130   47.4460 P.3   291  INH291      0.2224
     21  O7         6.4920   11.6030   46.7210 O.3   291  INH291     -0.4370
     22  O8         5.1810   13.6010   47.6330 O.2   291  INH291     -0.5170
     23  O9         5.1550   11.3180   48.8130 O.3   291  INH291     -0.2261
     24  P2         6.2700   11.1520   49.9520 P.3   291  INH291      0.5373
     25  O10        7.2350    9.9860   49.4000 O.3   291  INH291     -0.1143
     26  O11        5.4950   10.7300   51.1430 O.3   291  INH291     -0.1143
     27  O12        7.1740   12.3300   50.0400 O.2   291  INH291     -0.2221
     28  H3         2.4090   16.3140   41.9150 H     291  INH291      0.1734
     29  H4         2.5040   11.6500   42.0020 H     291  INH291      0.0867
     30  H5         5.0380   12.6410   42.3400 H     291  INH291      0.0665
     31  H6         5.7380   10.5770   41.6330 H     291  INH291      0.2101
     32  H7         5.1060   12.2670   44.7510 H     291  INH291      0.0647
     33  H8         4.0760    9.4130   44.2220 H     291  INH291      0.0647
     34  H9         6.9410   11.3380   43.6980 H     291  INH291      0.2100
     35  H10        4.2690    9.5890   46.5920 H     291  INH291      0.0591
     36  H11        2.5960   10.1990   46.3570 H     291  INH291      0.0591
@<TRIPOS>BOND
     1     1    11    1
     2     1     7   ar
     3     1     2   ar
     4     2     9    2
     5     2     3   ar
     6     3    28    1
     7     3     4   ar
     8     4    10    2
     9     4     5   ar
    10     5     7   ar
    11     5     6    1
    12     7     8    1
    13    11    29    1
    14    11    16    1
    15    11    12    1
    16    12    30    1
    17    12    14    1
    18    12    13    1
    19    13    31    1
    20    14    32    1
    21    14    17    1
    22    14    15    1
    23    15    33    1
    24    15    18    1
    25    15    16    1
    26    17    34    1
    27    18    36    1
    28    18    35    1
    29    18    19    1
    30    19    20    1
    31    20    23    1
    32    20    22    2
    33    20    21    1
    34    23    24    1
    35    24    27    2
    36    24    26    1
    37    24    25    1
