@<TRIPOS>MOLECULE
/tmp/ewbell/vina_1gx0_1gx0_lig/vina/vina1.pdbqt
 31 32 0 0 0
SMALL
GASTEIGER

@<TRIPOS>ATOM
      1  C5         3.0670   11.7210   43.2080 C.3   291  INH291      0.2630
      2  C6         4.5560   11.5050   42.8610 C.3   291  INH291      0.1980
      3  C7         5.1720   11.4180   44.2530 C.3   291  INH291      0.1820
      4  C8         4.1360   10.5450   45.0040 C.3   291  INH291      0.1800
      5  O4         2.8620   11.0010   44.4460 O.3   291  INH291     -0.3530
      6  C9         4.0620   10.7550   46.5560 C.3   291  INH291      0.2150
      7  O6         3.4290    9.6150   47.0940 O.3   291  INH291     -0.2940
      8  P1         3.6630    8.8000   48.4060 P.3   291  INH291      0.4010
      9  O8         4.7260    9.5190   49.1920 O.2   291  INH291     -0.6310
     10  O9         2.2380    8.8780   49.1050 O.3   291  INH291     -0.1950
     11  P2         1.9060    8.5600   50.6400 P.3   291  INH291      0.3990
     12  O12        1.7490    9.7930   51.4560 O.2   291  INH291     -0.6310
     13  O11        0.7920    7.5840   50.5630 O.3   291  INH291     -0.3070
     14  H          0.5080    7.4900   49.6400 H     291  INH291      0.2220
     15  O10        3.2610    7.9040   51.2150 O.3   291  INH291     -0.3070
     16  H          3.2550    6.9500   51.0450 H     291  INH291      0.2220
     17  O7         3.9260    7.3980   48.0080 O.3   291  INH291     -0.3070
     18  H          4.7870    7.3450   47.5630 H     291  INH291      0.2220
     19  O5         6.4440   10.7720   44.1180 O.3   291  INH291     -0.3900
     20  H9         6.4520    9.9780   44.6400 H     291  INH291      0.2100
     21  O3         4.7400   10.3320   42.0810 O.3   291  INH291     -0.3880
     22  H6         4.8190   10.5700   41.1640 H     291  INH291      0.2100
     23  N1         2.6630   13.1580   43.3730 N.ar  291  INH291     -0.2800
     24  C4         2.1880   13.6420   44.6090 C.ar  291  INH291      0.1040
     25  C3         1.7770   15.0800   44.8100 C.ar  291  INH291      0.0920
     26  C2         1.8950   15.9890   43.6040 C.ar  291  INH291      0.2500
     27  N2         2.3880   15.3570   42.4350 N.ar  291  INH291     -0.2750
     28  O2         1.6170   17.1860   43.5490 O.2   291  INH291     -0.2680
     29  C1         2.7670   14.0200   42.2660 C.ar  291  INH291      0.3310
     30  H3         2.4760   15.9400   41.6280 H     291  INH291      0.1730
     31  O1         3.1810   13.6190   41.1700 O.2   291  INH291     -0.2460
@<TRIPOS>BOND
     1    22    21    1
     2    31    29    2
     3    30    27    1
     4    21     2    1
     5    29    27   ar
     6    29    23   ar
     7    27    26   ar
     8     2     1    1
     9     2     3    1
    10     1    23    1
    11     1     5    1
    12    23    24   ar
    13    28    26    2
    14    26    25   ar
    15    19     3    1
    16    19    20    1
    17     3     4    1
    18     5     4    1
    19    24    25   ar
    20     4     6    1
    21     6     7    1
    22     7     8    1
    23    18    17    1
    24    17     8    1
    25     8    10    1
    26     8     9    2
    27    10    11    1
    28    14    13    1
    29    13    11    1
    30    11    15    1
    31    11    12    2
    32    16    15    1
