@<TRIPOS>MOLECULE
/tmp/ewbell/vina_1gx0_1gx0_lig/vina/vina5.pdbqt
 31 32 0 0 0
SMALL
GASTEIGER

@<TRIPOS>ATOM
      1  C5         4.1860    7.9580   50.2050 C.3   291  INH291      0.2630
      2  C6         2.7950    7.8190   50.8600 C.3   291  INH291      0.1980
      3  C7         2.3400    9.2740   50.8970 C.3   291  INH291      0.1820
      4  C8         2.7960    9.7830   49.5070 C.3   291  INH291      0.1800
      5  O4         4.0650    9.0840   49.3050 O.3   291  INH291     -0.3530
      6  C9         3.0920   11.3190   49.4040 C.3   291  INH291      0.2150
      7  O6         2.9430   11.6750   48.0480 O.3   291  INH291     -0.2940
      8  P1         3.6430   12.7520   47.1580 P.3   291  INH291      0.4010
      9  O8         5.0500   12.9040   47.6700 O.2   291  INH291     -0.6310
     10  O9         3.5930   12.0790   45.7200 O.3   291  INH291     -0.1950
     11  P2         4.3520   10.7440   45.2600 P.3   291  INH291      0.3990
     12  O12        3.9170   10.2760   43.9170 O.2   291  INH291     -0.6310
     13  O11        5.7820   11.0530   45.5020 O.3   291  INH291     -0.3070
     14  H          6.0540   11.7920   44.9350 H     291  INH291      0.2220
     15  O10        3.7920    9.6040   46.2500 O.3   291  INH291     -0.3070
     16  H          2.8320    9.7050   46.3490 H     291  INH291      0.2220
     17  O7         2.7730   13.9510   47.1580 O.3   291  INH291     -0.3070
     18  H          3.1360   14.6130   46.5470 H     291  INH291      0.2220
     19  O5         0.9160    9.2730   51.0460 O.3   291  INH291     -0.3900
     20  H9         0.6900    9.0040   51.9280 H     291  INH291      0.2100
     21  O3         1.9460    6.9750   50.0960 O.3   291  INH291     -0.3880
     22  H6         1.1560    7.4490   49.8610 H     291  INH291      0.2100
     23  N1         5.3150    8.1870   51.1700 N.ar  291  INH291     -0.2800
     24  C4         5.0930    8.1780   52.5630 C.ar  291  INH291      0.1040
     25  C3         6.2040    8.4020   53.5590 C.ar  291  INH291      0.0920
     26  C2         7.5850    8.6430   52.9840 C.ar  291  INH291      0.2500
     27  N2         7.6470    8.6210   51.5690 N.ar  291  INH291     -0.2750
     28  O2         8.6230    8.8450   53.6130 O.2   291  INH291     -0.2680
     29  C1         6.6050    8.4100   50.6580 C.ar  291  INH291      0.3310
     30  H3         8.5510    8.7760   51.1690 H     291  INH291      0.1730
     31  O1         6.8250    8.4220   49.4390 O.2   291  INH291     -0.2460
@<TRIPOS>BOND
     1    12    11    2
     2    14    13    1
     3    11    13    1
     4    11    10    1
     5    11    15    1
     6    10     8    1
     7    15    16    1
     8    18    17    1
     9    17     8    1
    10     8     9    2
    11     8     7    1
    12     7     6    1
    13     5     4    1
    14     5     1    1
    15     6     4    1
    16    31    29    2
    17     4     3    1
    18    22    21    1
    19    21     2    1
    20     1     2    1
    21     1    23    1
    22    29    23   ar
    23    29    27   ar
    24     2     3    1
    25     3    19    1
    26    19    20    1
    27    30    27    1
    28    23    24   ar
    29    27    26   ar
    30    24    25   ar
    31    26    25   ar
    32    26    28    2
