@<TRIPOS>MOLECULE
/tmp/ewbell/vina_1gx0_1gx0_lig/vina/vina4.pdbqt
 31 32 0 0 0
SMALL
GASTEIGER

@<TRIPOS>ATOM
      1  C5         3.2180   11.7610   44.8090 C.3   291  INH291      0.2630
      2  C6         4.2980   11.2590   43.8270 C.3   291  INH291      0.1980
      3  C7         5.5710   11.7330   44.5220 C.3   291  INH291      0.1820
      4  C8         5.2660   11.3960   46.0020 C.3   291  INH291      0.1800
      5  O4         3.8360   11.6890   46.1150 O.3   291  INH291     -0.3530
      6  C9         6.0030   12.2780   47.0700 C.3   291  INH291      0.2150
      7  O6         6.5130   11.3970   48.0460 O.3   291  INH291     -0.2940
      8  P1         5.9510   10.9080   49.4190 P.3   291  INH291      0.4010
      9  O8         6.7350   11.6090   50.4960 O.2   291  INH291     -0.6310
     10  O9         4.4410   11.3980   49.3550 O.3   291  INH291     -0.1950
     11  P2         3.1330   10.4720   49.3690 P.3   291  INH291      0.3990
     12  O12        3.0920    9.5620   50.5450 O.2   291  INH291     -0.6310
     13  O11        2.0230   11.4290   49.1420 O.3   291  INH291     -0.3070
     14  H          2.2990   12.0960   48.4940 H     291  INH291      0.2220
     15  O10        3.3410    9.4650   48.1290 O.3   291  INH291     -0.3070
     16  H          2.8090    8.6670   48.2670 H     291  INH291      0.2220
     17  O7         5.9770    9.4270   49.3990 O.3   291  INH291     -0.3070
     18  H          6.5820    9.1230   48.7040 H     291  INH291      0.2220
     19  O5         6.6580   10.9640   43.9930 O.3   291  INH291     -0.3900
     20  H9         7.0190   11.4070   43.2350 H     291  INH291      0.2100
     21  O3         4.2300    9.8490   43.6600 O.3   291  INH291     -0.3880
     22  H6         5.0880    9.4700   43.8140 H     291  INH291      0.2100
     23  N1         2.7290   13.1560   44.5450 N.ar  291  INH291     -0.2800
     24  C4         2.8240   13.7280   43.2600 C.ar  291  INH291      0.1040
     25  C3         2.3400   15.1260   42.9590 C.ar  291  INH291      0.0920
     26  C2         1.7440   15.8950   44.1210 C.ar  291  INH291      0.2500
     27  N2         1.7180   15.1870   45.3480 N.ar  291  INH291     -0.2750
     28  O2         1.2930   17.0400   44.0960 O.2   291  INH291     -0.2680
     29  C1         2.1710   13.8880   45.6080 C.ar  291  INH291      0.3310
     30  H3         1.3260   15.6770   46.1260 H     291  INH291      0.1730
     31  O1         2.0760   13.4070   46.7460 O.2   291  INH291     -0.2460
@<TRIPOS>BOND
     1    25    24   ar
     2    25    26   ar
     3    20    19    1
     4    24    23   ar
     5    21    22    1
     6    21     2    1
     7     2     3    1
     8     2     1    1
     9    19     3    1
    10    28    26    2
    11    26    27   ar
    12     3     4    1
    13    23     1    1
    14    23    29   ar
    15     1     5    1
    16    27    29   ar
    17    27    30    1
    18    29    31    2
    19     4     5    1
    20     4     6    1
    21     6     7    1
    22     7     8    1
    23    15    16    1
    24    15    11    1
    25    14    13    1
    26    18    17    1
    27    13    11    1
    28    10    11    1
    29    10     8    1
    30    11    12    2
    31    17     8    1
    32     8     9    2
