@<TRIPOS>MOLECULE
/tmp/ewbell/vina_1gx0_1gx0_lig/vina/vina3.pdbqt
 31 32 0 0 0
SMALL
GASTEIGER

@<TRIPOS>ATOM
      1  C5         3.0520   11.8450   43.2050 C.3   291  INH291      0.2630
      2  C6         4.5600   11.6360   42.9530 C.3   291  INH291      0.1980
      3  C7         5.0770   11.4730   44.3790 C.3   291  INH291      0.1820
      4  C8         3.9870   10.5720   45.0090 C.3   291  INH291      0.1800
      5  O4         2.7580   11.0660   44.3880 O.3   291  INH291     -0.3530
      6  C9         3.8050   10.7040   46.5620 C.3   291  INH291      0.2150
      7  O6         3.6230    9.3990   47.0640 O.3   291  INH291     -0.2940
      8  P1         3.4090    8.8470   48.5100 P.3   291  INH291      0.4010
      9  O8         2.9270    7.4280   48.3780 O.2   291  INH291     -0.6310
     10  O9         4.8740    8.9330   49.1200 O.3   291  INH291     -0.1950
     11  P2         5.6030    7.8250   50.0190 P.3   291  INH291      0.3990
     12  O12        5.0000    7.7050   51.3730 O.2   291  INH291     -0.6310
     13  O11        5.6620    6.6370   49.1330 O.3   291  INH291     -0.3070
     14  H          5.3700    6.8840   48.2420 H     291  INH291      0.2220
     15  O10        7.0600    8.4460   50.3160 O.3   291  INH291     -0.3070
     16  H          7.6720    8.1850   49.6100 H     291  INH291      0.2220
     17  O7         2.5360    9.8110   49.2200 O.3   291  INH291     -0.3070
     18  H          1.8800   10.1700   48.6010 H     291  INH291      0.2220
     19  O5         6.3520   10.8250   44.3000 O.3   291  INH291     -0.3900
     20  H9         6.8250   11.1490   43.5430 H     291  INH291      0.2100
     21  O3         4.7940   10.5020   42.1290 O.3   291  INH291     -0.3880
     22  H6         4.5350    9.7140   42.5930 H     291  INH291      0.2100
     23  N1         2.6430   13.2760   43.4140 N.ar  291  INH291     -0.2800
     24  C4         2.1790   13.7220   44.6690 C.ar  291  INH291      0.1040
     25  C3         1.7640   15.1520   44.9140 C.ar  291  INH291      0.0920
     26  C2         1.8660   16.0950   43.7320 C.ar  291  INH291      0.2500
     27  N2         2.3490   15.4980   42.5410 N.ar  291  INH291     -0.2750
     28  O2         1.5810   17.2920   43.7140 O.2   291  INH291     -0.2680
     29  C1         2.7320   14.1680   42.3310 C.ar  291  INH291      0.3310
     30  H3         2.4260   16.1050   41.7500 H     291  INH291      0.1730
     31  O1         3.1360   13.8000   41.2200 O.2   291  INH291     -0.2460
@<TRIPOS>BOND
     1    31    29    2
     2    30    27    1
     3    21    22    1
     4    21     2    1
     5    29    27   ar
     6    29    23   ar
     7    27    26   ar
     8     2     1    1
     9     2     3    1
    10     1    23    1
    11     1     5    1
    12    23    24   ar
    13    20    19    1
    14    28    26    2
    15    26    25   ar
    16    19     3    1
    17     3     4    1
    18     5     4    1
    19    24    25   ar
    20     4     6    1
    21     6     7    1
    22     7     8    1
    23    14    13    1
    24     9     8    2
    25     8    10    1
    26     8    17    1
    27    18    17    1
    28    10    11    1
    29    13    11    1
    30    16    15    1
    31    11    15    1
    32    11    12    2
