@<TRIPOS>MOLECULE
/tmp/ewbell/vina_1gx0_1gx0_lig/vina/vina2.pdbqt
 31 32 0 0 0
SMALL
GASTEIGER

@<TRIPOS>ATOM
      1  C5         3.1460   11.8310   43.1170 C.3   291  INH291      0.2630
      2  C6         4.6470   11.6950   42.7820 C.3   291  INH291      0.1980
      3  C7         5.2410   11.4850   44.1710 C.3   291  INH291      0.1820
      4  C8         4.2190   10.5110   44.8080 C.3   291  INH291      0.1800
      5  O4         2.9420   10.9840   44.2720 O.3   291  INH291     -0.3530
      6  C9         4.1110   10.5600   46.3720 C.3   291  INH291      0.2150
      7  O6         5.3400   11.0600   46.8510 O.3   291  INH291     -0.2940
      8  P1         5.7080   11.9360   48.0910 P.3   291  INH291      0.4010
      9  O8         5.4370   13.3690   47.7190 O.2   291  INH291     -0.6310
     10  O9         4.6980   11.3960   49.1920 O.3   291  INH291     -0.1950
     11  P2         4.9360   10.1610   50.1860 P.3   291  INH291      0.3990
     12  O12        3.7450    9.8710   51.0280 O.2   291  INH291     -0.6310
     13  O11        5.4870    9.1030   49.3050 O.3   291  INH291     -0.3070
     14  H          4.7640    8.6830   48.8140 H     291  INH291      0.2220
     15  O10        6.0180   10.7040   51.2480 O.3   291  INH291     -0.3070
     16  H          5.6900   10.5560   52.1480 H     291  INH291      0.2220
     17  O7         7.0890   11.5740   48.4870 O.3   291  INH291     -0.3070
     18  H          7.6750   12.3350   48.3460 H     291  INH291      0.2220
     19  O5         6.5340   10.8930   43.9970 O.3   291  INH291     -0.3900
     20  H9         6.4910   10.2330   43.3150 H     291  INH291      0.2100
     21  O3         4.8810   10.6130   41.8910 O.3   291  INH291     -0.3880
     22  H6         5.7960   10.3600   41.9330 H     291  INH291      0.2100
     23  N1         2.6940   13.2320   43.4190 N.ar  291  INH291     -0.2800
     24  C4         2.2370   13.5880   44.7040 C.ar  291  INH291      0.1040
     25  C3         1.7790   14.9860   45.0410 C.ar  291  INH291      0.0920
     26  C2         1.8320   16.0000   43.9160 C.ar  291  INH291      0.2500
     27  N2         2.3140   15.4920   42.6850 N.ar  291  INH291     -0.2750
     28  O2         1.5080   17.1860   43.9740 O.2   291  INH291     -0.2680
     29  C1         2.7370   14.1900   42.3900 C.ar  291  INH291      0.3310
     30  H3         2.3580   16.1460   41.9300 H     291  INH291      0.1730
     31  O1         3.1340   13.9020   41.2530 O.2   291  INH291     -0.2460
@<TRIPOS>BOND
     1    31    29    2
     2    21    22    1
     3    21     2    1
     4    30    27    1
     5    29    27   ar
     6    29    23   ar
     7    27    26   ar
     8     2     1    1
     9     2     3    1
    10     1    23    1
    11     1     5    1
    12    20    19    1
    13    23    24   ar
    14    26    28    2
    15    26    25   ar
    16    19     3    1
    17     3     4    1
    18     5     4    1
    19    24    25   ar
    20     4     6    1
    21     6     7    1
    22     7     8    1
    23     9     8    2
    24     8    17    1
    25     8    10    1
    26    18    17    1
    27    14    13    1
    28    10    11    1
    29    13    11    1
    30    11    12    2
    31    11    15    1
    32    15    16    1
