@<TRIPOS>MOLECULE
./ligand/1a99_lig.pdb
 20 19 0 0 0
SMALL
GASTEIGER

@<TRIPOS>ATOM
      1  N1       185.9370    8.2100   65.8030 N.4   687  INH687      0.2185
      2  C1       185.0470    7.2500   65.0860 C.3   687  INH687     -0.0352
      3  C2       184.0970    7.9880   64.1260 C.3   687  INH687     -0.0078
      4  C3       183.4900    7.0810   63.0700 C.3   687  INH687     -0.0078
      5  C4       182.5140    7.8100   62.1680 C.3   687  INH687     -0.0352
      6  N2       182.2700    7.0450   60.9210 N.4   687  INH687      0.2185
      7  H1       186.5480    7.7020   66.4240 H     687  INH687      0.1994
      8  H2       185.3750    8.8540   66.3370 H     687  INH687      0.1994
      9  H3       186.4890    8.7210   65.1320 H     687  INH687      0.1994
     10  H4       184.4510    6.6930   65.8240 H     687  INH687      0.0813
     11  H5       185.6670    6.5480   64.5090 H     687  INH687      0.0813
     12  H6       184.6610    8.7850   63.6200 H     687  INH687      0.0319
     13  H7       183.2820    8.4330   64.7150 H     687  INH687      0.0319
     14  H8       182.9590    6.2600   63.5740 H     687  INH687      0.0319
     15  H9       184.3010    6.6680   62.4510 H     687  INH687      0.0319
     16  H10      182.9300    8.7950   61.9100 H     687  INH687      0.0813
     17  H11      181.5610    7.9420   62.7010 H     687  INH687      0.0813
     18  H12      181.6190    7.5490   60.3390 H     687  INH687      0.1994
     19  H13      181.8850    6.1420   61.1510 H     687  INH687      0.1994
     20  H14      183.1390    6.9240   60.4250 H     687  INH687      0.1994
@<TRIPOS>BOND
     1    18     6    1
     2    20     6    1
     3     6    19    1
     4     6     5    1
     5    16     5    1
     6     5    17    1
     7     5     4    1
     8    15     4    1
     9     4    14    1
    10     4     3    1
    11    12     3    1
    12     3    13    1
    13     3     2    1
    14    11     2    1
    15     2     1    1
    16     2    10    1
    17     9     1    1
    18     1     8    1
    19     1     7    1
