@<TRIPOS>MOLECULE
/tmp/ewbell/vina_1a99_1a99_lig/vina/vina4.pdbqt
 12 11 0 0 0
SMALL
GASTEIGER

@<TRIPOS>ATOM
      1  C2       184.5300    7.6720   60.5100 C.3   687  INH687      0.0290
      2  C1       184.7450    6.5120   59.5210 C.3   687  INH687      0.2290
      3  N1       183.4740    6.1610   58.8220 N.4   687  INH687     -0.0790
      4  H3       183.6490    6.0710   57.8330 H     687  INH687      0.2740
      5  H2       183.1240    5.2880   59.1810 H     687  INH687      0.2740
      6  H1       182.7930    6.8870   58.9780 H     687  INH687      0.2740
      7  C3       184.1420    7.2060   61.9020 C.3   687  INH687      0.0290
      8  C4       182.8360    7.8140   62.3760 C.3   687  INH687      0.2290
      9  N2       181.7000    7.3460   61.5450 N.4   687  INH687     -0.0790
     10  H12      182.0360    6.6980   60.8500 H     687  INH687      0.2740
     11  H14      181.0210    6.8870   62.1320 H     687  INH687      0.2740
     12  H13      181.2700    8.1350   61.0890 H     687  INH687      0.2740
@<TRIPOS>BOND
     1     4     3    1
     2     3     6    1
     3     3     5    1
     4     3     2    1
     5     2     1    1
     6     1     7    1
     7    10     9    1
     8    12     9    1
     9     9    11    1
    10     9     8    1
    11     7     8    1
