@<TRIPOS>MOLECULE
/tmp/ewbell/vina_1a99_1a99_lig/vina/vina1.pdbqt
 12 11 0 0 0
SMALL
GASTEIGER

@<TRIPOS>ATOM
      1  C2       183.6360    8.2500   63.8460 C.3   687  INH687      0.0290
      2  C1       184.5100    7.2340   64.6010 C.3   687  INH687      0.2290
      3  N1       185.7030    7.8960   65.2050 N.4   687  INH687     -0.0790
      4  H3       186.2300    7.2190   65.7350 H     687  INH687      0.2740
      5  H2       186.2820    8.2750   64.4740 H     687  INH687      0.2740
      6  H1       185.4020    8.6390   65.8160 H     687  INH687      0.2740
      7  C3       183.0350    7.6910   62.5690 C.3   687  INH687      0.0290
      8  C4       184.0890    7.3120   61.5470 C.3   687  INH687      0.2290
      9  N2       183.4690    6.7100   60.3420 N.4   687  INH687     -0.0790
     10  H12      182.4670    6.8120   60.3920 H     687  INH687      0.2740
     11  H14      183.8130    7.1780   59.5180 H     687  INH687      0.2740
     12  H13      183.7050    5.7310   60.2960 H     687  INH687      0.2740
@<TRIPOS>BOND
     1    11     9    1
     2    12     9    1
     3     9    10    1
     4     9     8    1
     5     8     7    1
     6     7     1    1
     7     1     2    1
     8     5     3    1
     9     2     3    1
    10     3     4    1
    11     3     6    1
