@<TRIPOS>MOLECULE
/tmp/ewbell/vina_1a99_1a99_lig/vina/vina5.pdbqt
 12 11 0 0 0
SMALL
GASTEIGER

@<TRIPOS>ATOM
      1  C2       186.0290    7.4450   65.1630 C.3   687  INH687      0.0290
      2  C1       186.5800    8.2380   66.3610 C.3   687  INH687      0.2290
      3  N1       187.8740    7.6660   66.8340 N.4   687  INH687     -0.0790
      4  H3       188.5020    7.5650   66.0520 H     687  INH687      0.2740
      5  H2       188.2840    8.2830   67.5170 H     687  INH687      0.2740
      6  H1       187.7100    6.7640   67.2520 H     687  INH687      0.2740
      7  C3       184.6510    7.9070   64.7230 C.3   687  INH687      0.0290
      8  C4       184.2760    7.3890   63.3480 C.3   687  INH687      0.2290
      9  N2       183.0660    8.0760   62.8340 N.4   687  INH687     -0.0790
     10  H12      182.3490    7.3950   62.6420 H     687  INH687      0.2740
     11  H14      182.7320    8.7300   63.5240 H     687  INH687      0.2740
     12  H13      183.2960    8.5700   61.9850 H     687  INH687      0.2740
@<TRIPOS>BOND
     1    12     9    1
     2    10     9    1
     3     9     8    1
     4     9    11    1
     5     8     7    1
     6     7     1    1
     7     1     2    1
     8     4     3    1
     9     2     3    1
    10     3     6    1
    11     3     5    1
