@<TRIPOS>MOLECULE
/tmp/ewbell/vina_1a99_1a99_lig/vina/vina3.pdbqt
 12 11 0 0 0
SMALL
GASTEIGER

@<TRIPOS>ATOM
      1  C2       184.1210    7.1450   61.8940 C.3   687  INH687      0.0290
      2  C1       182.8120    7.7970   62.3760 C.3   687  INH687      0.2290
      3  N1       181.6500    7.3300   61.5650 N.4   687  INH687     -0.0790
      4  H3       181.3010    8.0940   61.0090 H     687  INH687      0.2740
      5  H2       181.9420    6.5800   60.9600 H     687  INH687      0.2740
      6  H1       180.9210    7.0020   62.1800 H     687  INH687      0.2740
      7  C3       184.5730    7.6470   60.5340 C.3   687  INH687      0.0290
      8  C4       184.7560    6.5250   59.5310 C.3   687  INH687      0.2290
      9  N2       183.4720    6.1920   58.8670 N.4   687  INH687     -0.0790
     10  H12      182.7570    6.0600   59.5640 H     687  INH687      0.2740
     11  H14      183.2070    6.9450   58.2520 H     687  INH687      0.2740
     12  H13      183.5810    5.3440   58.3330 H     687  INH687      0.2740
@<TRIPOS>BOND
     1    11     9    1
     2    12     9    1
     3     9     8    1
     4     9    10    1
     5     8     7    1
     6     7     1    1
     7     5     3    1
     8     4     3    1
     9     3     6    1
    10     3     2    1
    11     1     2    1
