@<TRIPOS>MOLECULE
/tmp/ewbell/vina_1a99_1a99_lig/vina/vina2.pdbqt
 12 11 0 0 0
SMALL
GASTEIGER

@<TRIPOS>ATOM
      1  C2       183.0720    7.7940   62.6590 C.3   687  INH687      0.0290
      2  C1       184.0980    7.2700   61.6380 C.3   687  INH687      0.2290
      3  N1       183.4200    6.7590   60.4110 N.4   687  INH687     -0.0790
      4  H3       182.4210    6.7950   60.5390 H     687  INH687      0.2740
      5  H2       183.6790    7.3290   59.6220 H     687  INH687      0.2740
      6  H1       183.7030    5.8060   60.2430 H     687  INH687      0.2740
      7  C3       183.7070    8.2760   63.9510 C.3   687  INH687      0.0290
      8  C4       184.7020    7.2830   64.5170 C.3   687  INH687      0.2290
      9  N2       185.7440    7.9720   65.3170 N.4   687  INH687     -0.0790
     10  H12      185.3300    8.3490   66.1540 H     687  INH687      0.2740
     11  H14      186.4660    7.3140   65.5650 H     687  INH687      0.2740
     12  H13      186.1440    8.7210   64.7730 H     687  INH687      0.2740
@<TRIPOS>BOND
     1     5     3    1
     2     6     3    1
     3     3     4    1
     4     3     2    1
     5     2     1    1
     6     1     7    1
     7     7     8    1
     8     8     9    1
     9    12     9    1
    10     9    11    1
    11     9    10    1
