@<TRIPOS>MOLECULE
./ligand/2are_lig.pdb
 24 24 0 0 0
SMALL
GASTEIGER

@<TRIPOS>ATOM
      1  C1         4.7640   42.0550   25.6370 C.3   487  INH487      0.1854
      2  C2         3.6720   41.1930   25.0060 C.3   487  INH487      0.1339
      3  C3         3.0880   40.2510   26.0630 C.3   487  INH487      0.1141
      4  C4         4.2050   39.4170   26.6960 C.3   487  INH487      0.1119
      5  C5         5.2680   40.3600   27.2700 C.3   487  INH487      0.1130
      6  C6         6.4520   39.6200   27.8570 C.3   487  INH487      0.0730
      7  O1         4.2100   42.8460   26.6330 O.3   487  INH487     -0.3649
      8  O2         4.2230   40.4340   23.9410 O.3   487  INH487     -0.3841
      9  O3         2.1260   39.4080   25.4630 O.3   487  INH487     -0.3864
     10  O4         3.6760   38.6030   27.7360 O.3   487  INH487     -0.3865
     11  O5         5.7810   41.2210   26.2280 O.3   487  INH487     -0.3407
     12  O6         7.1650   38.9340   26.8380 O.3   487  INH487     -0.3924
     13  H1         5.2160   42.6940   24.8640 H     487  INH487      0.0935
     14  H2         2.8740   41.8420   24.6160 H     487  INH487      0.0671
     15  H3         2.6010   40.8490   26.8480 H     487  INH487      0.0648
     16  H4         4.6610   38.7740   25.9280 H     487  INH487      0.0647
     17  H5         4.8020   40.9720   28.0570 H     487  INH487      0.0647
     18  H6         6.0920   38.8930   28.6000 H     487  INH487      0.0584
     19  H7         7.1230   40.3410   28.3460 H     487  INH487      0.0584
     20  H8         4.8890   43.3820   27.0260 H     487  INH487      0.2126
     21  H9         4.5840   41.0210   23.2870 H     487  INH487      0.2101
     22  H10        1.4390   39.9370   25.0740 H     487  INH487      0.2100
     23  H11        3.0170   38.0200   27.3780 H     487  INH487      0.2100
     24  H12        7.9030   38.4760   27.2220 H     487  INH487      0.2095
@<TRIPOS>BOND
     1     1    13    1
     2     1    11    1
     3     1     7    1
     4     1     2    1
     5     2    14    1
     6     2     8    1
     7     2     3    1
     8     3    15    1
     9     3     9    1
    10     3     4    1
    11     4    16    1
    12     4    10    1
    13     4     5    1
    14     5    17    1
    15     5    11    1
    16     5     6    1
    17     6    19    1
    18     6    18    1
    19     6    12    1
    20     7    20    1
    21     8    21    1
    22     9    22    1
    23    10    23    1
    24    12    24    1
