@<TRIPOS>MOLECULE
/tmp/ewbell/vina_2are_2are_lig/vina/vina5.pdbqt
 17 17 0 0 0
SMALL
GASTEIGER

@<TRIPOS>ATOM
      1  C1        -5.8480   30.9720   37.3700 C.3   487  INH487      0.2880
      2  C2        -6.1520   32.1420   36.4370 C.3   487  INH487      0.2040
      3  C3        -7.3940   32.8860   36.9350 C.3   487  INH487      0.1830
      4  C4        -8.5700   31.9140   37.0640 C.3   487  INH487      0.1800
      5  C5        -8.1650   30.7590   37.9860 C.3   487  INH487      0.1790
      6  O5        -6.9910   30.0970   37.4640 O.3   487  INH487     -0.3490
      7  C6        -9.2470   29.7070   38.1170 C.3   487  INH487      0.1980
      8  O6        -9.9760   29.5900   36.9040 O.3   487  INH487     -0.3980
      9  H12       -9.8780   30.3880   36.3980 H     487  INH487      0.2090
     10  O4        -9.7010   32.5860   37.6070 O.3   487  INH487     -0.3900
     11  H11      -10.3410   31.9460   37.8950 H     487  INH487      0.2100
     12  O3        -7.7140   33.9270   36.0350 O.3   487  INH487     -0.3900
     13  H10       -7.4830   33.6640   35.1510 H     487  INH487      0.2100
     14  O1        -5.5580   31.4550   38.6380 O.3   487  INH487     -0.3690
     15  H8        -5.3150   32.3710   38.5790 H     487  INH487      0.2120
     16  O2        -6.3810   31.6550   35.1240 O.3   487  INH487     -0.3880
     17  H9        -6.9260   32.2710   34.6480 H     487  INH487      0.2100
@<TRIPOS>BOND
     1    17    16    1
     2    16     2    1
     3    13    12    1
     4    12     3    1
     5     9     8    1
     6     2     3    1
     7     2     1    1
     8     8     7    1
     9     3     4    1
    10     4    10    1
    11     4     5    1
    12     1     6    1
    13     1    14    1
    14     6     5    1
    15    10    11    1
    16     5     7    1
    17    15    14    1
