@<TRIPOS>MOLECULE
/tmp/ewbell/vina_2are_2are_lig/vina/vina1.pdbqt
 17 17 0 0 0
SMALL
GASTEIGER

@<TRIPOS>ATOM
      1  C1         4.9690   42.0170   25.5970 C.3   487  INH487      0.2880
      2  C2         3.8230   41.2430   24.9480 C.3   487  INH487      0.2040
      3  C3         3.1490   40.3520   25.9950 C.3   487  INH487      0.1830
      4  C4         4.1860   39.4340   26.6480 C.3   487  INH487      0.1800
      5  C5         5.3100   40.2910   27.2390 C.3   487  INH487      0.1790
      6  O5         5.9070   41.1070   26.2060 O.3   487  INH487     -0.3490
      7  C6         6.4220   39.4610   27.8470 C.3   487  INH487      0.1980
      8  O6         7.2230   38.8820   26.8280 O.3   487  INH487     -0.3980
      9  H12        7.8850   39.5050   26.5520 H     487  INH487      0.2090
     10  O4         3.5760   38.6660   27.6790 O.3   487  INH487     -0.3900
     11  H11        2.6430   38.6000   27.5150 H     487  INH487      0.2100
     12  O3         2.1340   39.5870   25.3790 O.3   487  INH487     -0.3900
     13  H10        1.4940   39.3250   26.0310 H     487  INH487      0.2100
     14  O1         4.4630   42.8520   26.5830 O.3   487  INH487     -0.3690
     15  H8         3.6060   43.1680   26.3210 H     487  INH487      0.2120
     16  O2         4.3310   40.4410   23.8930 O.3   487  INH487     -0.3880
     17  H9         3.6210   40.2000   23.3090 H     487  INH487      0.2100
@<TRIPOS>BOND
     1    17    16    1
     2    16     2    1
     3     2     1    1
     4     2     3    1
     5    12     3    1
     6    12    13    1
     7     1     6    1
     8     1    14    1
     9     3     4    1
    10     6     5    1
    11    15    14    1
    12     9     8    1
    13     4     5    1
    14     4    10    1
    15     8     7    1
    16     5     7    1
    17    11    10    1
