@<TRIPOS>MOLECULE
/tmp/ewbell/vina_2are_2are_lig/vina/vina2.pdbqt
 17 17 0 0 0
SMALL
GASTEIGER

@<TRIPOS>ATOM
      1  C1        -7.5010   27.8360   15.4630 C.3   487  INH487      0.2880
      2  C2        -6.4800   27.1780   16.3890 C.3   487  INH487      0.2040
      3  C3        -6.7500   27.6040   17.8350 C.3   487  INH487      0.1830
      4  C4        -6.7420   29.1320   17.9410 C.3   487  INH487      0.1800
      5  C5        -7.7670   29.7050   16.9570 C.3   487  INH487      0.1790
      6  O5        -7.4610   29.2700   15.6130 O.3   487  INH487     -0.3490
      7  C6        -7.7810   31.2200   16.9410 C.3   487  INH487      0.1980
      8  O6        -8.5530   31.7220   18.0210 O.3   487  INH487     -0.3980
      9  H12       -8.0140   32.2890   18.5600 H     487  INH487      0.2090
     10  O4        -7.0760   29.5300   19.2650 O.3   487  INH487     -0.3900
     11  H11       -7.0780   30.4780   19.3200 H     487  INH487      0.2100
     12  O3        -5.7640   27.0490   18.6820 O.3   487  INH487     -0.3900
     13  H10       -5.8520   27.4150   19.5540 H     487  INH487      0.2100
     14  O1        -8.7740   27.3950   15.7920 O.3   487  INH487     -0.3690
     15  H8        -8.7100   26.6400   16.3650 H     487  INH487      0.2120
     16  O2        -5.1710   27.5740   16.0100 O.3   487  INH487     -0.3880
     17  H9        -4.6750   27.8130   16.7840 H     487  INH487      0.2100
@<TRIPOS>BOND
     1     1     6    1
     2     1    14    1
     3     1     2    1
     4     6     5    1
     5    14    15    1
     6    16     2    1
     7    16    17    1
     8     2     3    1
     9     7     5    1
    10     7     8    1
    11     5     4    1
    12     3     4    1
    13     3    12    1
    14     4    10    1
    15     8     9    1
    16    12    13    1
    17    10    11    1
