@<TRIPOS>MOLECULE
/tmp/ewbell/vina_2are_2are_lig/vina/vina3.pdbqt
 17 17 0 0 0
SMALL
GASTEIGER

@<TRIPOS>ATOM
      1  C1         4.3390   39.3270   26.8930 C.3   487  INH487      0.2880
      2  C2         5.5820   39.8350   27.6210 C.3   487  INH487      0.2040
      3  C3         5.5580   41.3660   27.6690 C.3   487  INH487      0.1830
      4  C4         5.4320   41.9330   26.2530 C.3   487  INH487      0.1800
      5  C5         4.1810   41.3450   25.5900 C.3   487  INH487      0.1790
      6  O5         4.2620   39.9010   25.5730 O.3   487  INH487     -0.3490
      7  C6         4.0130   41.7960   24.1540 C.3   487  INH487      0.1980
      8  O6         5.2780   41.9410   23.5260 O.3   487  INH487     -0.3980
      9  H12        5.1580   42.2850   22.6490 H     487  INH487      0.2090
     10  O4         5.3240   43.3510   26.3030 O.3   487  INH487     -0.3900
     11  H11        5.5370   43.7150   25.4520 H     487  INH487      0.2100
     12  O3         6.7410   41.8370   28.2830 O.3   487  INH487     -0.3900
     13  H10        6.5820   41.9830   29.2080 H     487  INH487      0.2100
     14  O1         3.2050   39.7000   27.6010 O.3   487  INH487     -0.3690
     15  H8         3.4350   39.8500   28.5110 H     487  INH487      0.2120
     16  O2         6.7450   39.3970   26.9360 O.3   487  INH487     -0.3880
     17  H9         6.5680   39.3580   26.0040 H     487  INH487      0.2100
@<TRIPOS>BOND
     1     9     8    1
     2     8     7    1
     3     7     5    1
     4    11    10    1
     5     6     5    1
     6     6     1    1
     7     5     4    1
     8    17    16    1
     9     4    10    1
    10     4     3    1
    11     1    14    1
    12     1     2    1
    13    16     2    1
    14    14    15    1
    15     2     3    1
    16     3    12    1
    17    12    13    1
