@<TRIPOS>MOLECULE
/tmp/ewbell/vina_2are_2are_lig/vina/vina4.pdbqt
 17 17 0 0 0
SMALL
GASTEIGER

@<TRIPOS>ATOM
      1  C1         1.2040   40.5780   23.7060 C.3   487  INH487      0.2880
      2  C2         0.3840   39.7160   24.6640 C.3   487  INH487      0.2040
      3  C3         0.8560   39.9580   26.1010 C.3   487  INH487      0.1830
      4  C4         2.3600   39.6930   26.2110 C.3   487  INH487      0.1800
      5  C5         3.0970   40.5710   25.1930 C.3   487  INH487      0.1790
      6  O5         2.6100   40.2980   23.8590 O.3   487  INH487     -0.3490
      7  C6         4.5910   40.3250   25.1800 C.3   487  INH487      0.1980
      8  O6         4.9200   39.2190   26.0080 O.3   487  INH487     -0.3980
      9  H12        4.1340   38.7190   26.1950 H     487  INH487      0.2090
     10  O4         2.8140   39.9980   27.5240 O.3   487  INH487     -0.3900
     11  H11        2.3340   39.4750   28.1550 H     487  INH487      0.2100
     12  O3         0.1440   39.1110   26.9800 O.3   487  INH487     -0.3900
     13  H10       -0.0410   38.2860   26.5450 H     487  INH487      0.2100
     14  O1         0.9890   41.9180   23.9910 O.3   487  INH487     -0.3690
     15  H8         0.2370   42.0030   24.5650 H     487  INH487      0.2120
     16  O2         0.5500   38.3470   24.3300 O.3   487  INH487     -0.3880
     17  H9         1.4750   38.1520   24.2400 H     487  INH487      0.2100
@<TRIPOS>BOND
     1     1     6    1
     2     1    14    1
     3     1     2    1
     4     6     5    1
     5    14    15    1
     6    17    16    1
     7    16     2    1
     8     2     3    1
     9     7     5    1
    10     7     8    1
    11     5     4    1
    12     8     9    1
    13     3     4    1
    14     3    12    1
    15     4    10    1
    16    13    12    1
    17    10    11    1
