@<TRIPOS>MOLECULE
/tmp/ewbell/vina_2reg_2reg_lig/vina/vina1.pdbqt
 8 7 0 0 0
SMALL
GASTEIGER

@<TRIPOS>ATOM
      1  C2        16.4710    2.1420    7.1220 C.3   293  INH293      0.2620
      2  C1        16.8610    1.9820    5.6440 C.3   293  INH293      0.1920
      3  O1        18.0480    2.7340    5.3610 O.3   293  INH293     -0.3990
      4  H14       18.2920    2.6110    4.4520 H     293  INH293      0.2090
      5  N1        15.7080    3.3650    7.4550 N.4   293  INH293     -0.0770
      6  C3        15.2290    3.1730    8.8360 C.3   293  INH293      0.2710
      7  C4        16.5240    4.5950    7.4760 C.3   293  INH293      0.2710
      8  C5        14.5460    3.5790    6.5800 C.3   293  INH293      0.2710
@<TRIPOS>BOND
     1     4     3    1
     2     3     2    1
     3     2     1    1
     4     8     5    1
     5     1     5    1
     6     5     7    1
     7     5     6    1
