@<TRIPOS>MOLECULE
/tmp/ewbell/vina_2reg_2reg_lig/vina/vina2.pdbqt
 8 7 0 0 0
SMALL
GASTEIGER

@<TRIPOS>ATOM
      1  C2         4.0590    8.6880   15.5330 C.3   293  INH293      0.2620
      2  C1         5.0650    9.2570   14.5190 C.3   293  INH293      0.1920
      3  O1         5.0940    8.4430   13.3400 O.3   293  INH293     -0.3990
      4  H14        5.0930    7.5260   13.5880 H     293  INH293      0.2090
      5  N1         4.5080    8.6740   16.9430 N.4   293  INH293     -0.0770
      6  C3         4.0250    9.9370   17.5280 C.3   293  INH293      0.2710
      7  C4         3.9080    7.5950   17.7530 C.3   293  INH293      0.2710
      8  C5         5.9710    8.6190   17.0850 C.3   293  INH293      0.2710
@<TRIPOS>BOND
     1     3     4    1
     2     3     2    1
     3     2     1    1
     4     1     5    1
     5     5     8    1
     6     5     6    1
     7     5     7    1
