@<TRIPOS>MOLECULE
/tmp/ewbell/vina_2reg_2reg_lig/vina/vina3.pdbqt
 8 7 0 0 0
SMALL
GASTEIGER

@<TRIPOS>ATOM
      1  C2         3.3900    8.5680   14.6020 C.3   293  INH293      0.2620
      2  C1         4.6790    9.1800   14.0310 C.3   293  INH293      0.1920
      3  O1         5.1850    8.3630   12.9670 O.3   293  INH293     -0.3990
      4  H14        4.5720    8.3700   12.2420 H     293  INH293      0.2090
      5  N1         3.2570    8.6120   16.0760 N.4   293  INH293     -0.0770
      6  C3         2.5910    7.3530   16.4540 C.3   293  INH293      0.2710
      7  C4         4.5470    8.6210   16.7950 C.3   293  INH293      0.2710
      8  C5         2.4390    9.7380   16.5500 C.3   293  INH293      0.2710
@<TRIPOS>BOND
     1     4     3    1
     2     3     2    1
     3     2     1    1
     4     1     5    1
     5     5     6    1
     6     5     8    1
     7     5     7    1
