@<TRIPOS>MOLECULE
/tmp/ewbell/vina_2reg_2reg_lig/vina/vina5.pdbqt
 8 7 0 0 0
SMALL
GASTEIGER

@<TRIPOS>ATOM
      1  C2        13.0870   14.7550   16.0080 C.3   293  INH293      0.2620
      2  C1        12.7830   13.7460   14.8900 C.3   293  INH293      0.1920
      3  O1        11.7020   12.8880   15.2760 O.3   293  INH293     -0.3990
      4  H14       11.6750   12.8190   16.2230 H     293  INH293      0.2090
      5  N1        14.1590   14.3640   16.9520 N.4   293  INH293     -0.0770
      6  C3        14.7340   15.6270   17.4470 C.3   293  INH293      0.2710
      7  C4        13.6750   13.6420   18.1450 C.3   293  INH293      0.2710
      8  C5        15.2270   13.5770   16.3190 C.3   293  INH293      0.2710
@<TRIPOS>BOND
     1     2     3    1
     2     2     1    1
     3     3     4    1
     4     1     5    1
     5     8     5    1
     6     5     6    1
     7     5     7    1
