@<TRIPOS>MOLECULE
/tmp/ewbell/vina_2reg_2reg_lig/vina/vina4.pdbqt
 8 7 0 0 0
SMALL
GASTEIGER

@<TRIPOS>ATOM
      1  C2        23.5900    6.1730   13.0860 C.3   293  INH293      0.2620
      2  C1        23.2430    5.7560   11.6480 C.3   293  INH293      0.1920
      3  O1        22.2780    6.6580   11.0900 O.3   293  INH293     -0.3990
      4  H14       22.4300    7.5330   11.4280 H     293  INH293      0.2090
      5  N1        25.0250    6.1050   13.4450 N.4   293  INH293     -0.0770
      6  C3        25.7260    5.7110   12.2100 C.3   293  INH293      0.2710
      7  C4        25.6050    7.4010   13.8470 C.3   293  INH293      0.2710
      8  C5        25.3130    5.1090   14.4880 C.3   293  INH293      0.2710
@<TRIPOS>BOND
     1     3     4    1
     2     3     2    1
     3     2     1    1
     4     6     5    1
     5     1     5    1
     6     5     7    1
     7     5     8    1
