@<TRIPOS>MOLECULE
./ligand/1swk_lig.pdb
 31 32 0 0 0
SMALL
GASTEIGER

@<TRIPOS>ATOM
      1  C1        17.5800   19.2980   31.5830 C.2   477  INH477      0.3560
      2  O1        18.3440   20.1310   31.0260 O.co2 477  INH477     -0.2464
      3  O2        16.3820   19.1300   31.2620 O.co2 477  INH477     -0.2464
      4  C2        18.2140   18.4710   32.6480 C.3   477  INH477      0.0492
      5  C3        19.6750   18.1690   32.2560 C.3   477  INH477     -0.0428
      6  C4        19.6780   17.0250   31.2290 C.3   477  INH477     -0.0515
      7  C5        21.1010   16.7010   30.6990 C.3   477  INH477     -0.0394
      8  C6        21.1970   15.6630   29.6050 C.3   477  INH477      0.0255
      9  S1        20.4740   14.0040   29.9520 S.3   477  INH477     -0.1536
     10  C7        21.1850   13.4210   28.3850 C.3   477  INH477      0.0143
     11  C8        22.5740   14.0190   28.2790 C.3   477  INH477      0.0529
     12  N1        23.6050   13.2520   28.9340 N.am  477  INH477     -0.2940
     13  C9        24.1530   13.9150   29.9720 C.2   477  INH477      0.3002
     14  O3        25.0690   13.4980   30.7110 O.2   477  INH477     -0.2528
     15  N2        23.5880   15.1410   30.0730 N.am  477  INH477     -0.2937
     16  C10       22.5750   15.3580   29.0520 C.3   477  INH477      0.0555
     17  H1        17.6600   17.5270   32.7590 H     477  INH477      0.0379
     18  H2        18.1950   19.0210   33.6000 H     477  INH477      0.0379
     19  H3        20.2440   17.8680   33.1480 H     477  INH477      0.0270
     20  H4        20.1330   19.0660   31.8140 H     477  INH477      0.0270
     21  H5        19.0430   17.3130   30.3790 H     477  INH477      0.0266
     22  H6        19.2660   16.1230   31.7050 H     477  INH477      0.0266
     23  H7        21.7010   16.3450   31.5500 H     477  INH477      0.0276
     24  H8        21.5330   17.6350   30.3110 H     477  INH477      0.0276
     25  H9        20.6150   16.0930   28.7770 H     477  INH477      0.0431
     26  H10       20.5640   13.7560   27.5410 H     477  INH477      0.0395
     27  H11       21.2450   12.3230   28.3830 H     477  INH477      0.0395
     28  H12       22.8270   14.1650   27.2190 H     477  INH477      0.0525
     29  H13       23.8820   12.3340   28.6510 H     477  INH477      0.1506
     30  H14       23.8370   15.8170   30.7670 H     477  INH477      0.1506
     31  H15       22.8760   16.1860   28.3930 H     477  INH477      0.0528
@<TRIPOS>BOND
     1     1     4    1
     2     1     3   ar
     3     1     2   ar
     4     4    18    1
     5     4    17    1
     6     4     5    1
     7     5    20    1
     8     5    19    1
     9     5     6    1
    10     6    22    1
    11     6    21    1
    12     6     7    1
    13     7    24    1
    14     7    23    1
    15     7     8    1
    16     8    25    1
    17     8    16    1
    18     8     9    1
    19     9    10    1
    20    10    27    1
    21    10    26    1
    22    10    11    1
    23    11    28    1
    24    11    16    1
    25    11    12    1
    26    12    29    1
    27    12    13   am
    28    13    15   am
    29    13    14    2
    30    15    30    1
    31    15    16    1
    32    16    31    1
