@<TRIPOS>MOLECULE
/tmp/ewbell/vina_1swk_1swk_lig/vina/vina4.pdbqt
 19 20 0 0 0
SMALL
GASTEIGER

@<TRIPOS>ATOM
      1  C6        25.7860    1.7010   18.8460 C.3   477  INH477      0.0720
      2  S1        25.4880    0.4660   20.1810 S.3   477  INH477     -0.1600
      3  C7        24.3720    1.6630   20.9710 C.3   477  INH477      0.1010
      4  C8        23.5620    2.3100   19.8660 C.3   477  INH477      0.1190
      5  N1        22.3760    1.5810   19.4920 N.am  477  INH477     -0.3360
      6  C9        22.4390    1.1180   18.2270 C.2   477  INH477      0.3160
      7  O3        21.5530    0.4630   17.6380 O.2   477  INH477     -0.2470
      8  N2        23.6020    1.5120   17.6600 N.am  477  INH477     -0.3350
      9  C10       24.4160    2.2940   18.5780 C.3   477  INH477      0.1230
     10  H13       21.5950    1.4340   20.1000 H     477  INH477      0.1640
     11  H14       23.8710    1.2930   16.7220 H     477  INH477      0.1640
     12  C5        26.5920    1.2470   17.6520 C.3   477  INH477      0.0170
     13  C4        28.0580    1.7530   17.5680 C.3   477  INH477      0.0020
     14  C3        28.7130    1.9020   18.9500 C.3   477  INH477      0.0100
     15  C2        29.1580    3.3680   19.1270 C.3   477  INH477      0.1100
     16  C1        28.8150    3.8240   20.5030 C.2   477  INH477      0.1390
     17  O2        27.6290    3.8220   20.9060 O.2   477  INH477     -0.6500
     18  O1        29.7880    4.2360   21.1890 O.3   477  INH477     -0.7760
     19  H         30.3480    3.6230   21.6230 H     477  INH477      0.1670
@<TRIPOS>BOND
     1    11     8    1
     2    13    12    1
     3    13    14    1
     4     7     6    2
     5    12     1    1
     6     8     6   am
     7     8     9    1
     8     6     5   am
     9     9     1    1
    10     9     4    1
    11     1     2    1
    12    14    15    1
    13    15    16    1
    14     5     4    1
    15     5    10    1
    16     4     3    1
    17     2     3    1
    18    16    17    2
    19    16    18    1
    20    18    19    1
