@<TRIPOS>MOLECULE
/tmp/ewbell/vina_1swk_1swk_lig/vina/vina2.pdbqt
 19 20 0 0 0
SMALL
GASTEIGER

@<TRIPOS>ATOM
      1  C6        25.7210    2.0940   18.2000 C.3   477  INH477      0.0720
      2  S1        25.7850    0.8020   19.5120 S.3   477  INH477     -0.1600
      3  C7        24.6840    1.8400   20.5180 C.3   477  INH477      0.1010
      4  C8        23.6370    2.4130   19.5830 C.3   477  INH477      0.1190
      5  N1        22.4960    1.5570   19.3710 N.am  477  INH477     -0.3360
      6  C9        22.4050    1.1350   18.0940 C.2   477  INH477      0.3160
      7  O3        21.5150    0.3940   17.6250 O.2   477  INH477     -0.2470
      8  N2        23.4090    1.6770   17.3670 N.am  477  INH477     -0.3350
      9  C10       24.2680    2.5270   18.1770 C.3   477  INH477      0.1230
     10  H13       21.8460    1.3050   20.0880 H     477  INH477      0.1640
     11  H14       23.5460    1.5120   16.3900 H     477  INH477      0.1640
     12  C5        26.3700    1.7660   16.8750 C.3   477  INH477      0.0170
     13  C4        27.5260    0.7310   16.9030 C.3   477  INH477      0.0020
     14  C3        28.8250    1.3090   17.4890 C.3   477  INH477      0.0100
     15  C2        29.6660    0.1490   18.0570 C.3   477  INH477      0.1100
     16  C1        29.6960    0.2440   19.5440 C.2   477  INH477      0.1390
     17  O2        29.9410    1.3310   20.1160 O.2   477  INH477     -0.6500
     18  O1        29.4970   -0.8400   20.1540 O.3   477  INH477     -0.7760
     19  H         29.6240   -1.6560   19.7130 H     477  INH477      0.1670
@<TRIPOS>BOND
     1    11     8    1
     2    12    13    1
     3    12     1    1
     4    13    14    1
     5     8     6   am
     6     8     9    1
     7    14    15    1
     8     7     6    2
     9    15    16    1
    10     6     5   am
    11     9     1    1
    12     9     4    1
    13     1     2    1
    14     5     4    1
    15     5    10    1
    16     2     3    1
    17    16    17    2
    18    16    18    1
    19     4     3    1
    20    19    18    1
