@<TRIPOS>MOLECULE
/tmp/ewbell/vina_1swk_1swk_lig/vina/vina5.pdbqt
 19 20 0 0 0
SMALL
GASTEIGER

@<TRIPOS>ATOM
      1  C6        27.7220   15.1030   19.6740 C.3   477  INH477      0.0720
      2  S1        28.6830   13.7440   20.4650 S.3   477  INH477     -0.1600
      3  C7        28.4740   14.5900   22.0590 C.3   477  INH477      0.1010
      4  C8        27.0490   15.1050   22.1040 C.3   477  INH477      0.1190
      5  N1        26.0840   14.1470   22.5830 N.am  477  INH477     -0.3360
      6  C9        25.1940   13.8000   21.6320 C.2   477  INH477      0.3160
      7  O3        24.2450   12.9980   21.7690 O.2   477  INH477     -0.2470
      8  N2        25.4510   14.4920   20.4990 N.am  477  INH477     -0.3350
      9  C10       26.5950   15.3770   20.6520 C.3   477  INH477      0.1230
     10  H13       26.0750   13.7810   23.5140 H     477  INH477      0.1640
     11  H14       24.9190   14.4060   19.6570 H     477  INH477      0.1640
     12  C5        27.3540   14.9320   18.2190 C.3   477  INH477      0.0170
     13  C4        26.8450   16.1970   17.4760 C.3   477  INH477      0.0020
     14  C3        25.3360   16.1460   17.1840 C.3   477  INH477      0.0100
     15  C2        24.9470   14.6860   16.8750 C.3   477  INH477      0.1100
     16  C1        23.6190   14.3910   17.4810 C.2   477  INH477      0.1390
     17  O2        22.6160   15.0900   17.2110 O.2   477  INH477     -0.6500
     18  O1        23.6030   13.4290   18.2950 O.3   477  INH477     -0.7760
     19  H         23.7440   12.5550   17.9890 H     477  INH477      0.1670
@<TRIPOS>BOND
     1    15    14    1
     2    15    16    1
     3    14    13    1
     4    17    16    2
     5    13    12    1
     6    16    18    1
     7    19    18    1
     8    12     1    1
     9    11     8    1
    10     1     2    1
    11     1     9    1
    12     2     3    1
    13     8     9    1
    14     8     6   am
    15     9     4    1
    16     6     7    2
    17     6     5   am
    18     3     4    1
    19     4     5    1
    20     5    10    1
