@<TRIPOS>MOLECULE
/tmp/ewbell/vina_1swk_1swk_lig/vina/vina1.pdbqt
 19 20 0 0 0
SMALL
GASTEIGER

@<TRIPOS>ATOM
      1  C6        25.1710   14.0240   20.2290 C.3   477  INH477      0.0720
      2  S1        25.6890   15.2850   18.9890 S.3   477  INH477     -0.1600
      3  C7        24.7930   14.3360   17.7240 C.3   477  INH477      0.1010
      4  C8        23.4940   13.8750   18.3530 C.3   477  INH477      0.1190
      5  N1        22.4200   14.8350   18.2720 N.am  477  INH477     -0.3360
      6  C9        22.0430   15.2830   19.4860 C.2   477  INH477      0.3160
      7  O3        21.1340   16.1090   19.7160 O.2   477  INH477     -0.2470
      8  N2        22.7720   14.6630   20.4420 N.am  477  INH477     -0.3350
      9  C10       23.7280   13.7250   19.8730 C.3   477  INH477      0.1230
     10  H13       22.0020   15.1340   17.4140 H     477  INH477      0.1640
     11  H14       22.6670   14.8280   21.4230 H     477  INH477      0.1640
     12  C5        25.4850   14.3110   21.6790 C.3   477  INH477      0.0170
     13  C4        26.9850   14.3220   22.0780 C.3   477  INH477      0.0020
     14  C3        27.3780   15.5820   22.8680 C.3   477  INH477      0.0100
     15  C2        27.8910   16.6430   21.8740 C.3   477  INH477      0.1100
     16  C1        28.3400   17.8470   22.6280 C.2   477  INH477      0.1390
     17  O2        29.5070   17.9320   23.0730 O.2   477  INH477     -0.6500
     18  O1        27.4570   18.7280   22.8050 O.3   477  INH477     -0.7760
     19  H         27.6200   19.6140   22.5470 H     477  INH477      0.1670
@<TRIPOS>BOND
     1    10     5    1
     2     3     4    1
     3     3     2    1
     4     5     4    1
     5     5     6   am
     6     4     9    1
     7     2     1    1
     8     6     7    2
     9     6     8   am
    10     9     1    1
    11     9     8    1
    12     1    12    1
    13     8    11    1
    14    12    13    1
    15    15    16    1
    16    15    14    1
    17    13    14    1
    18    19    18    1
    19    16    18    1
    20    16    17    2
