@<TRIPOS>MOLECULE
/tmp/ewbell/vina_1swk_1swk_lig/vina/vina3.pdbqt
 19 20 0 0 0
SMALL
GASTEIGER

@<TRIPOS>ATOM
      1  C6        25.5350   14.5660   19.4610 C.3   477  INH477      0.0720
      2  S1        25.5920   15.7650   18.0630 S.3   477  INH477     -0.1600
      3  C7        24.6510   14.5720   17.0660 C.3   477  INH477      0.1010
      4  C8        23.5880   13.9800   17.9700 C.3   477  INH477      0.1190
      5  N1        22.3710   14.7510   18.0420 N.am  477  INH477     -0.3360
      6  C9        22.1560   15.2520   19.2750 C.2   477  INH477      0.3160
      7  O3        21.1790   15.9470   19.6260 O.2   477  INH477     -0.2470
      8  N2        23.1440   14.8470   20.1050 N.am  477  INH477     -0.3350
      9  C10       24.1220   14.0170   19.4200 C.3   477  INH477      0.1230
     10  H13       21.7570   14.8980   17.2660 H     477  INH477      0.1640
     11  H14       23.1960   15.0900   21.0740 H     477  INH477      0.1640
     12  C5        26.0590   15.0380   20.7970 C.3   477  INH477      0.0170
     13  C4        27.5920   15.2560   20.9070 C.3   477  INH477      0.0020
     14  C3        28.1890   14.6340   22.1800 C.3   477  INH477      0.0100
     15  C2        29.3500   13.7040   21.7720 C.3   477  INH477      0.1100
     16  C1        28.7980   12.4850   21.1180 C.2   477  INH477      0.1390
     17  O2        29.1370   12.1670   19.9550 O.2   477  INH477     -0.6500
     18  O1        27.9580   11.8420   21.8030 O.3   477  INH477     -0.7760
     19  H         27.4790   12.2750   22.4820 H     477  INH477      0.1670
@<TRIPOS>BOND
     1     3     4    1
     2     3     2    1
     3    10     5    1
     4     4     5    1
     5     4     9    1
     6     5     6   am
     7     2     1    1
     8     6     7    2
     9     6     8   am
    10     9     1    1
    11     9     8    1
    12     1    12    1
    13    17    16    2
    14     8    11    1
    15    12    13    1
    16    13    14    1
    17    16    15    1
    18    16    18    1
    19    15    14    1
    20    18    19    1
