@<TRIPOS>MOLECULE
./ligand/2uwl_lig.pdb
 50 52 0 0 0
SMALL
GASTEIGER

@<TRIPOS>ATOM
      1 Cl1        13.7720    7.5130   26.1530 Cl    291  INH291     -0.0758
      2  C1        12.0760    7.7700   26.1550 C.ar  291  INH291      0.0786
      3  C2        11.2160    7.3640   27.1950 C.ar  291  INH291     -0.0356
      4  C3         9.8780    7.6550   26.8610 C.ar  291  INH291     -0.0460
      5  C4         9.7590    8.2890   25.6240 C.ar  291  INH291      0.0149
      6  C5         8.4660    8.7370   25.0060 C.2   291  INH291     -0.0289
      7  S1         6.6090    9.3300   23.2520 S.O2  291  INH291      0.0524
      8  O1         6.6720   10.6700   22.7810 O.2   291  INH291     -0.1536
      9  O2         5.7930    9.0340   24.3880 O.2   291  INH291     -0.1536
     10  N1         6.1810    8.3880   22.0080 N.3   291  INH291     -0.1786
     11  C6         6.0500    6.9380   22.1510 C.3   291  INH291      0.1064
     12  C7         4.7340    6.3310   21.6280 C.3   291  INH291     -0.0116
     13  C8         5.1160    4.8570   21.4380 C.3   291  INH291      0.0174
     14  C9         7.0590    6.1230   21.3770 C.2   291  INH291      0.2349
     15  O3         8.1980    6.4750   21.1190 O.2   291  INH291     -0.2738
     16  N2         6.5060    4.9530   21.0050 N.am  291  INH291     -0.2888
     17  C10        7.2920    3.9520   20.2640 C.3   291  INH291      0.0996
     18  C11        7.0800    2.5250   20.7880 C.3   291  INH291     -0.0379
     19  C12        7.0330    3.9740   18.7690 C.2   291  INH291      0.2360
     20  O4         5.9960    4.4980   18.3700 O.2   291  INH291     -0.2736
     21  N3         7.9590    3.4120   17.9470 N.am  291  INH291     -0.2956
     22  C13        9.2200    2.7930   18.4080 C.3   291  INH291      0.0382
     23  C14        9.9530    1.9090   17.3900 C.3   291  INH291      0.0635
     24  O5         9.8980    2.5590   16.1310 O.3   291  INH291     -0.3767
     25  C15        8.5550    2.5620   15.6480 C.3   291  INH291      0.0635
     26  C16        7.6690    3.4660   16.5110 C.3   291  INH291      0.0382
     27  S2        11.2650    8.5120   24.8510 S.2   291  INH291     -0.0773
     28  C17        8.2190    8.8190   23.6890 C.2   291  INH291      0.0701
     29  H1        11.5390    6.8930   28.1230 H     291  INH291      0.0638
     30  H2         9.0300    7.4110   27.4990 H     291  INH291      0.0629
     31  H3         7.6610    9.0190   25.6830 H     291  INH291      0.0642
     32  H4         6.0010    8.8080   21.1180 H     291  INH291      0.1488
     33  H5         6.1500    6.7190   23.2240 H     291  INH291      0.0573
     34  H6         4.4320    6.7920   20.6760 H     291  INH291      0.0301
     35  H7         3.9230    6.4420   22.3630 H     291  INH291      0.0301
     36  H8         4.4910    4.3790   20.6700 H     291  INH291      0.0465
     37  H9         5.0300    4.2980   22.3810 H     291  INH291      0.0465
     38  H10        8.3510    4.2060   20.4170 H     291  INH291      0.0594
     39  H11        7.6890    1.8240   20.1990 H     291  INH291      0.0252
     40  H12        6.0180    2.2540   20.6960 H     291  INH291      0.0252
     41  H13        7.3810    2.4740   21.8450 H     291  INH291      0.0252
     42  H14        8.9880    2.1720   19.2860 H     291  INH291      0.0487
     43  H15        9.9030    3.6030   18.7020 H     291  INH291      0.0487
     44  H16        9.4620    0.9270   17.3260 H     291  INH291      0.0575
     45  H17       11.0010    1.7760   17.6970 H     291  INH291      0.0575
     46  H18        8.1590    1.5360   15.6760 H     291  INH291      0.0575
     47  H19        8.5450    2.9310   14.6120 H     291  INH291      0.0575
     48  H20        7.8040    4.5040   16.1720 H     291  INH291      0.0487
     49  H21        6.6220    3.1650   16.3610 H     291  INH291      0.0487
     50  H22        8.9750    8.5820   22.9420 H     291  INH291      0.0835
@<TRIPOS>BOND
     1     1     2    1
     2     2     3   ar
     3     2    27   ar
     4     3     4   ar
     5     3    29    1
     6     4     5   ar
     7     4    30    1
     8     5     6    1
     9     5    27   ar
    10     6    28    2
    11     6    31    1
    12     7    28    1
    13     7    10    1
    14     7     9    2
    15     7     8    2
    16    10    32    1
    17    10    11    1
    18    11    33    1
    19    11    14    1
    20    11    12    1
    21    12    35    1
    22    12    34    1
    23    12    13    1
    24    13    37    1
    25    13    36    1
    26    13    16    1
    27    14    16   am
    28    14    15    2
    29    16    17    1
    30    17    38    1
    31    17    19    1
    32    17    18    1
    33    18    41    1
    34    18    40    1
    35    18    39    1
    36    19    21   am
    37    19    20    2
    38    21    26    1
    39    21    22    1
    40    22    43    1
    41    22    42    1
    42    22    23    1
    43    23    45    1
    44    23    44    1
    45    23    24    1
    46    24    25    1
    47    25    47    1
    48    25    46    1
    49    25    26    1
    50    26    49    1
    51    26    48    1
    52    28    50    1
