@<TRIPOS>MOLECULE
/tmp/ewbell/vina_2uwl_2uwl_lig/vina/vina5.pdbqt
 29 31 0 0 0
SMALL
GASTEIGER

@<TRIPOS>ATOM
      1  C6         8.0690    9.0340   20.3900 C.3   291  INH291      0.1860
      2  C7         7.0520   10.1710   20.6080 C.3   291  INH291      0.0550
      3  C8         7.1070   10.3610   22.1290 C.3   291  INH291      0.1290
      4  C9         7.8430    8.2160   21.6400 C.2   291  INH291      0.2440
      5  O3         8.0900    7.0270   21.7570 O.2   291  INH291     -0.2710
      6  N2         7.3160    8.9970   22.6020 N.am  291  INH291     -0.3370
      7  N1         7.9370    8.2970   19.1330 N.3   291  INH291     -0.3020
      8  H4         8.7210    8.2480   18.5130 H     291  INH291      0.1730
      9  S1         6.5580    7.5590   18.7200 S.O2  291  INH291      0.2490
     10  O2         6.3240    7.7190   17.3180 O.2   291  INH291     -0.2010
     11  O1         5.5520    7.9710   19.6370 O.2   291  INH291     -0.2010
     12  C17        6.8550    5.8560   18.9510 C.2   291  INH291      0.1320
     13  C5         7.8930    5.3470   18.2710 C.2   291  INH291      0.0320
     14  C4         8.3640    3.9230   18.3330 C.ar  291  INH291      0.0070
     15  C3         8.0160    3.0070   19.3260 C.ar  291  INH291      0.0210
     16  C2         8.6190    1.7480   19.1390 C.ar  291  INH291      0.0330
     17  C1         9.3970    1.7500   17.9630 C.ar  291  INH291      0.0750
     18 Cl1        10.2230    0.3780   17.3520 Cl    291  INH291     -0.0760
     19  S2         9.4060    3.2540   17.1580 S.2   291  INH291     -0.0780
     20  C10        7.0310    8.4510   23.9400 C.3   291  INH291      0.1750
     21  C11        8.0780    8.8630   24.9840 C.3   291  INH291      0.0420
     22  C12        5.6500    8.8150   24.4540 C.2   291  INH291      0.2420
     23  N3         4.5950    8.0560   24.0560 N.am  291  INH291     -0.3460
     24  C16        3.2820    8.4440   24.5810 C.3   291  INH291      0.1520
     25  C13        4.6930    6.9100   23.1260 C.3   291  INH291      0.1520
     26  C15        2.1800    7.4010   24.3750 C.3   291  INH291      0.1870
     27  O5         2.3100    6.7720   23.1010 O.3   291  INH291     -0.3880
     28  C14        3.4800    5.9710   23.0790 C.3   291  INH291      0.1870
     29  O4         5.5500    9.7790   25.2100 O.2   291  INH291     -0.2710
@<TRIPOS>BOND
     1    19    17   ar
     2    19    14   ar
     3    10     9    2
     4    18    17    1
     5    17    16   ar
     6    13    14    1
     7    13    12    2
     8    14    15   ar
     9     8     7    1
    10     9    12    1
    11     9     7    1
    12     9    11    2
    13     7     1    1
    14    16    15   ar
    15     1     2    1
    16     1     4    1
    17     2     3    1
    18     4     5    2
    19     4     6   am
    20     3     6    1
    21     6    20    1
    22    28    27    1
    23    28    25    1
    24    27    26    1
    25    25    23    1
    26    20    22    1
    27    20    21    1
    28    23    22   am
    29    23    24    1
    30    26    24    1
    31    22    29    2
