@<TRIPOS>MOLECULE
/tmp/ewbell/vina_2uwl_2uwl_lig/vina/vina3.pdbqt
 29 31 0 0 0
SMALL
GASTEIGER

@<TRIPOS>ATOM
      1  C6         7.8720    6.6430   19.4700 C.3   291  INH291      0.1860
      2  C7         7.3990    5.8750   20.7190 C.3   291  INH291      0.0550
      3  C8         7.9020    4.4540   20.4300 C.3   291  INH291      0.1290
      4  C9         7.7060    5.5790   18.4110 C.2   291  INH291      0.2440
      5  O3         7.5520    5.7920   17.2200 O.2   291  INH291     -0.2710
      6  N2         7.7440    4.3610   18.9830 N.am  291  INH291     -0.3370
      7  N1         7.1790    7.9030   19.2000 N.3   291  INH291     -0.3020
      8  H4         6.2950    7.8820   18.7320 H     291  INH291      0.1730
      9  S1         7.8060    9.3280   19.6370 S.O2  291  INH291      0.2490
     10  O2         6.7880   10.1500   20.2160 O.2   291  INH291     -0.2010
     11  O1         8.5520    9.8320   18.5360 O.2   291  INH291     -0.2010
     12  C17        8.9110    8.9710   20.9390 C.2   291  INH291      0.1320
     13  C5         8.4300    9.1500   22.1780 C.2   291  INH291      0.0320
     14  C4         9.1750    8.8770   23.4520 C.ar  291  INH291      0.0070
     15  C3        10.4960    9.2510   23.7030 C.ar  291  INH291      0.0210
     16  C2        10.9420    8.8490   24.9780 C.ar  291  INH291      0.0330
     17  C1         9.9030    8.1970   25.6730 C.ar  291  INH291      0.0750
     18 Cl1        10.0300    7.6330   27.2870 Cl    291  INH291     -0.0760
     19  S2         8.4620    8.0580   24.7700 S.2   291  INH291     -0.0780
     20  C10        7.6410    3.1420   18.1630 C.3   291  INH291      0.1750
     21  C11        8.3690    1.9440   18.7860 C.3   291  INH291      0.0420
     22  C12        6.2080    2.7450   17.8560 C.2   291  INH291      0.2420
     23  N3         5.8560    2.5630   16.5560 N.am  291  INH291     -0.3460
     24  C16        4.4630    2.1770   16.3090 C.3   291  INH291      0.1520
     25  C13        6.7670    2.7550   15.4070 C.3   291  INH291      0.1520
     26  C15        4.1810    1.6780   14.8890 C.3   291  INH291      0.1870
     27  O5         4.9190    2.4360   13.9310 O.3   291  INH291     -0.3880
     28  C14        6.3040    2.1640   14.0680 C.3   291  INH291      0.1870
     29  O4         5.4330    2.6050   18.7990 O.2   291  INH291     -0.2710
@<TRIPOS>BOND
     1    27    28    1
     2    27    26    1
     3    28    25    1
     4    26    24    1
     5    25    23    1
     6    24    23    1
     7    23    22   am
     8     5     4    2
     9    22    20    1
    10    22    29    2
    11    20    21    1
    12    20     6    1
    13     4     6   am
    14     4     1    1
    15    11     9    2
    16     8     7    1
    17     6     3    1
    18     7     1    1
    19     7     9    1
    20     1     2    1
    21     9    10    2
    22     9    12    1
    23     3     2    1
    24    12    13    2
    25    13    14    1
    26    14    15   ar
    27    14    19   ar
    28    15    16   ar
    29    19    17   ar
    30    16    17   ar
    31    17    18    1
