@<TRIPOS>MOLECULE
/tmp/ewbell/vina_2uwl_2uwl_lig/vina/vina2.pdbqt
 29 31 0 0 0
SMALL
GASTEIGER

@<TRIPOS>ATOM
      1  C6         6.2350    8.1330   19.0940 C.3   291  INH291      0.1860
      2  C7         5.0020    8.4860   19.9470 C.3   291  INH291      0.0550
      3  C8         5.4610    9.7670   20.6560 C.3   291  INH291      0.1290
      4  C9         7.3470    8.5780   20.0150 C.2   291  INH291      0.2440
      5  O3         8.4900    8.1520   19.9950 O.2   291  INH291     -0.2710
      6  N2         6.8810    9.5080   20.8700 N.am  291  INH291     -0.3370
      7  N1         6.3190    6.7430   18.6450 N.3   291  INH291     -0.3020
      8  H4         6.7060    6.0550   19.2590 H     291  INH291      0.1730
      9  S1         5.8030    6.2900   17.1800 S.O2  291  INH291      0.2490
     10  O2         6.3160    7.1830   16.1870 O.2   291  INH291     -0.2010
     11  O1         4.3990    6.0820   17.2580 O.2   291  INH291     -0.2010
     12  C17        6.5740    4.7570   16.8680 C.2   291  INH291      0.1320
     13  C5         7.7510    4.5600   17.4820 C.2   291  INH291      0.0320
     14  C4         8.5830    3.3130   17.3970 C.ar  291  INH291      0.0070
     15  C3         9.8570    3.1610   17.9450 C.ar  291  INH291      0.0210
     16  C2        10.4070    1.8890   17.6960 C.ar  291  INH291      0.0330
     17  C1         9.4900    1.0950   16.9770 C.ar  291  INH291      0.0750
     18 Cl1         9.7610   -0.5450   16.5540 Cl    291  INH291     -0.0760
     19  S2         8.0380    1.9060   16.5980 S.2   291  INH291     -0.0780
     20  C10        7.7750   10.1370   21.8570 C.3   291  INH291      0.1750
     21  C11        7.6820   11.6680   21.8500 C.3   291  INH291      0.0420
     22  C12        7.5540    9.6340   23.2710 C.2   291  INH291      0.2420
     23  N3         8.6280    9.1700   23.9640 N.am  291  INH291     -0.3460
     24  C16        8.3670    8.6980   25.3270 C.3   291  INH291      0.1520
     25  C13       10.0020    9.0900   23.4220 C.3   291  INH291      0.1520
     26  C15        9.6210    8.4820   26.1790 C.3   291  INH291      0.1870
     27  O5        10.6760    7.9270   25.3950 O.3   291  INH291     -0.3880
     28  C14       11.1240    8.8830   24.4490 C.3   291  INH291      0.1870
     29  O4         6.4140    9.6720   23.7280 O.2   291  INH291     -0.2710
@<TRIPOS>BOND
     1    10     9    2
     2    18    17    1
     3    19    17   ar
     4    19    14   ar
     5    12     9    1
     6    12    13    2
     7    17    16   ar
     8     9    11    2
     9     9     7    1
    10    14    13    1
    11    14    15   ar
    12    16    15   ar
    13     7     1    1
    14     7     8    1
    15     1     2    1
    16     1     4    1
    17     2     3    1
    18     5     4    2
    19     4     6   am
    20     3     6    1
    21     6    20    1
    22    21    20    1
    23    20    22    1
    24    22    29    2
    25    22    23   am
    26    25    23    1
    27    25    28    1
    28    23    24    1
    29    28    27    1
    30    24    26    1
    31    27    26    1
