@<TRIPOS>MOLECULE
/tmp/ewbell/vina_2uwl_2uwl_lig/vina/vina4.pdbqt
 29 31 0 0 0
SMALL
GASTEIGER

@<TRIPOS>ATOM
      1  C6         8.0110    8.4120   20.9330 C.3   291  INH291      0.1860
      2  C7         8.0900    8.9950   19.5090 C.3   291  INH291      0.0550
      3  C8         6.9740    8.2260   18.7890 C.3   291  INH291      0.1290
      4  C9         7.6410    6.9800   20.6280 C.2   291  INH291      0.2440
      5  O3         7.8570    6.0270   21.3580 O.2   291  INH291     -0.2710
      6  N2         7.0460    6.9140   19.4220 N.am  291  INH291     -0.3370
      7  N1         9.2090    8.5830   21.7560 N.3   291  INH291     -0.3020
      8  H4        10.1000    8.3340   21.3750 H     291  INH291      0.1730
      9  S1         9.1300    9.1630   23.2630 S.O2  291  INH291      0.2490
     10  O2         8.9920   10.5860   23.2300 O.2   291  INH291     -0.2010
     11  O1        10.2010    8.5940   24.0060 O.2   291  INH291     -0.2010
     12  C17        7.6260    8.5650   23.9140 C.2   291  INH291      0.1320
     13  C5         6.5660    9.3740   23.7690 C.2   291  INH291      0.0320
     14  C4         5.1650    9.0660   24.2140 C.ar  291  INH291      0.0070
     15  C3         4.4040    9.8590   25.0730 C.ar  291  INH291      0.0210
     16  C2         3.1300    9.3150   25.3290 C.ar  291  INH291      0.0330
     17  C1         2.9610    8.1140   24.6100 C.ar  291  INH291      0.0750
     18 Cl1         1.5130    7.1960   24.5980 Cl    291  INH291     -0.0760
     19  S2         4.3300    7.6690   23.6960 S.2   291  INH291     -0.0780
     20  C10        6.5510    5.6300   18.8980 C.3   291  INH291      0.1750
     21  C11        5.0430    5.6460   18.6150 C.3   291  INH291      0.0420
     22  C12        7.2830    5.1700   17.6510 C.2   291  INH291      0.2420
     23  N3         8.0670    4.0620   17.7370 N.am  291  INH291     -0.3460
     24  C16        8.7520    3.6550   16.5060 C.3   291  INH291      0.1520
     25  C13        8.2840    3.2850   18.9760 C.3   291  INH291      0.1520
     26  C15        9.3620    2.2510   16.5500 C.3   291  INH291      0.1870
     27  O5         9.9280    1.9860   17.8330 O.3   291  INH291     -0.3880
     28  C14        8.8970    1.8890   18.8020 C.3   291  INH291      0.1870
     29  O4         7.1320    5.8190   16.6190 O.2   291  INH291     -0.2710
@<TRIPOS>BOND
     1    24    26    1
     2    24    23    1
     3    26    27    1
     4    29    22    2
     5    22    23   am
     6    22    20    1
     7    23    25    1
     8    27    28    1
     9    21    20    1
    10     3     6    1
    11     3     2    1
    12    28    25    1
    13    20     6    1
    14     6     4   am
    15     2     1    1
    16     4     1    1
    17     4     5    2
    18     1     7    1
    19     8     7    1
    20     7     9    1
    21    10     9    2
    22     9    12    1
    23     9    11    2
    24    19    14   ar
    25    19    17   ar
    26    13    12    2
    27    13    14    1
    28    14    15   ar
    29    18    17    1
    30    17    16   ar
    31    15    16   ar
