@<TRIPOS>MOLECULE
/tmp/ewbell/vina_2uwl_2uwl_lig/vina/vina1.pdbqt
 29 31 0 0 0
SMALL
GASTEIGER

@<TRIPOS>ATOM
      1  C6         6.3980    7.3860   20.5770 C.3   291  INH291      0.1860
      2  C7         4.9030    7.0400   20.7070 C.3   291  INH291      0.0550
      3  C8         4.9530    5.6190   21.2840 C.3   291  INH291      0.1290
      4  C9         6.9650    6.0360   20.2070 C.2   291  INH291      0.2440
      5  O3         8.0090    5.8530   19.6040 O.2   291  INH291     -0.2710
      6  N2         6.1350    5.0650   20.6320 N.am  291  INH291     -0.3370
      7  N1         6.7210    8.4710   19.6500 N.3   291  INH291     -0.3020
      8  H4         6.2140    8.5450   18.7910 H     291  INH291      0.1730
      9  S1         7.8760    9.5550   19.9790 S.O2  291  INH291      0.2490
     10  O2         7.2920   10.7300   20.5470 O.2   291  INH291     -0.2010
     11  O1         8.6940    9.6830   18.8220 O.2   291  INH291     -0.2010
     12  C17        8.8300    8.8460   21.2560 C.2   291  INH291      0.1320
     13  C5         8.7690    9.4670   22.4430 C.2   291  INH291      0.0320
     14  C4         9.4700    9.0280   23.6950 C.ar  291  INH291      0.0070
     15  C3        10.8100    9.2780   23.9930 C.ar  291  INH291      0.0210
     16  C2        11.2030    8.7330   25.2310 C.ar  291  INH291      0.0330
     17  C1        10.1070    8.1010   25.8540 C.ar  291  INH291      0.0750
     18 Cl1        10.1650    7.3880   27.4120 Cl    291  INH291     -0.0760
     19  S2         8.6760    8.1500   24.9260 S.2   291  INH291     -0.0780
     20  C10        6.4710    3.6460   20.4290 C.3   291  INH291      0.1750
     21  C11        5.7210    2.7140   21.3900 C.3   291  INH291      0.0420
     22  C12        6.2430    3.1740   19.0050 C.2   291  INH291      0.2420
     23  N3         7.2840    2.6040   18.3410 N.am  291  INH291     -0.3460
     24  C16        7.0150    2.1610   16.9700 C.3   291  INH291      0.1520
     25  C13        8.6420    2.4370   18.9020 C.3   291  INH291      0.1520
     26  C15        8.0920    1.2530   16.3690 C.3   291  INH291      0.1870
     27  O5         9.3940    1.6830   16.7650 O.3   291  INH291     -0.3880
     28  C14        9.5680    1.4670   18.1560 C.3   291  INH291      0.1870
     29  O4         5.1260    3.3270   18.5170 O.2   291  INH291     -0.2710
@<TRIPOS>BOND
     1    26    27    1
     2    26    24    1
     3    27    28    1
     4    24    23    1
     5    28    25    1
     6    23    25    1
     7    23    22   am
     8    29    22    2
     9     8     7    1
    10    11     9    2
    11    22    20    1
    12     5     4    2
    13     7     9    1
    14     7     1    1
    15     9    10    2
    16     9    12    1
    17     4     1    1
    18     4     6   am
    19    20     6    1
    20    20    21    1
    21     1     2    1
    22     6     3    1
    23     2     3    1
    24    12    13    2
    25    13    14    1
    26    14    15   ar
    27    14    19   ar
    28    15    16   ar
    29    19    17   ar
    30    16    17   ar
    31    17    18    1
