@<TRIPOS>MOLECULE
./ligand/2fxu_lig.pdb
 118 120 0 0 0
SMALL
GASTEIGER

@<TRIPOS>ATOM
      1  O1        14.2060  -12.9030   37.1060 O.2   368  INH368     -0.2754
      2  C1        14.1450  -13.6130   36.1170 C.2   368  INH368      0.2184
      3  C2        14.9100  -13.2100   34.8880 C.3   368  INH368      0.0601
      4  C3        14.2890  -11.9090   34.3280 C.3   368  INH368     -0.0517
      5  C4        16.4200  -13.1110   35.1420 C.3   368  INH368      0.0815
      6  O2        16.7020  -11.9690   35.9460 O.3   368  INH368     -0.3895
      7  C5        16.9360  -14.4070   35.7850 C.3   368  INH368      0.0383
      8  N1        18.3900  -14.3980   35.9460 N.am  368  INH368     -0.3128
      9  C6        19.2530  -14.8950   35.0720 C.2   368  INH368      0.2156
     10  O3        18.8500  -15.3550   34.0040 O.2   368  INH368     -0.2757
     11  C7        20.7270  -14.8180   35.3960 C.3   368  INH368      0.0505
     12  C8        21.3760  -16.1950   35.3760 C.3   368  INH368      0.0698
     13  C9        22.8710  -16.1350   35.6890 C.3   368  INH368     -0.0170
     14  C10       23.6060  -15.1710   34.7820 C.3   368  INH368     -0.0600
     15  C11       23.1220  -15.8010   37.1530 C.3   368  INH368     -0.0457
     16  C12       22.4060  -16.7970   38.0370 C.3   368  INH368     -0.0259
     17  O4        20.7060  -17.0560   36.3090 O.3   368  INH368     -0.3722
     18  C13       20.9190  -16.8690   37.7130 C.3   368  INH368      0.0661
     19  C14       20.3280  -18.0630   38.4590 C.3   368  INH368      0.0361
     20  C15       18.8430  -17.9100   38.7180 C.2   368  INH368      0.1582
     21  O5        18.3510  -16.7980   38.7610 O.2   368  INH368     -0.2926
     22  C16       17.9560  -19.0770   38.9350 C.2   368  INH368     -0.0233
     23  C17       18.3940  -20.3380   38.9170 C.2   368  INH368     -0.0838
     24  C18       17.4290  -21.4790   39.1430 C.3   368  INH368     -0.0464
     25  N2        13.4460  -14.7330   36.0670 N.am  368  INH368     -0.3150
     26  C19       12.6480  -15.2540   37.1700 C.3   368  INH368      0.0117
     27  C20       11.5820  -16.1680   36.5890 C.3   368  INH368     -0.0350
     28  C21       10.5960  -16.6390   37.6570 C.3   368  INH368     -0.0248
     29  C22        9.5280  -17.5070   37.0230 C.3   368  INH368      0.0646
     30  C23        8.4390  -17.9690   37.9930 C.3   368  INH368     -0.0173
     31  C24        7.6670  -16.7860   38.5830 C.3   368  INH368     -0.0601
     32  C25        7.5490  -18.9770   37.2710 C.3   368  INH368     -0.0432
     33  C26        8.3760  -20.1140   36.6740 C.3   368  INH368      0.0018
     34  C27        9.4710  -19.5690   35.7580 C.3   368  INH368      0.1707
     35  O6        10.2180  -18.6530   36.5480 O.3   368  INH368     -0.3451
     36  C28       10.4530  -20.6510   35.3200 C.3   368  INH368      0.0015
     37  C29       11.4970  -20.1190   34.3430 C.3   368  INH368     -0.0458
     38  C30       10.7760  -19.4760   33.1660 C.3   368  INH368     -0.0263
     39  C31        9.8600  -18.3890   33.6990 C.3   368  INH368      0.0620
     40  O7         8.8850  -18.9710   34.5970 O.3   368  INH368     -0.3454
     41  C32        9.1100  -17.7360   32.5690 C.3   368  INH368     -0.0260
     42  C33        8.3550  -16.4850   33.0120 C.3   368  INH368     -0.0447
     43  C34        7.7170  -15.7120   31.8470 C.3   368  INH368     -0.0253
     44  C35        7.1380  -14.3600   32.2750 C.3   368  INH368     -0.0589
     45  C36        6.6240  -16.5560   31.2220 C.2   368  INH368     -0.0798
     46  C37        6.6480  -17.0360   29.9610 C.2   368  INH368     -0.0485
     47  C38        7.7600  -16.7640   28.9730 C.3   368  INH368     -0.0414
     48  C39        5.5000  -17.8720   29.4540 C.3   368  INH368      0.0732
     49  C40        5.9740  -19.3010   29.2200 C.3   368  INH368     -0.0351
     50  O8         5.0180  -17.3110   28.2270 O.3   368  INH368     -0.3878
     51  H1        14.7670  -13.9960   34.1320 H     368  INH368      0.0417
     52  H2        13.2100  -12.0550   34.1720 H     368  INH368      0.0238
     53  H3        14.7670  -11.6570   33.3700 H     368  INH368      0.0238
     54  H4        14.4480  -11.0890   35.0440 H     368  INH368      0.0238
     55  H5        16.9290  -12.9830   34.1750 H     368  INH368      0.0616
     56  H6        17.6380  -11.9130   36.1000 H     368  INH368      0.2099
     57  H7        16.6550  -15.2570   35.1460 H     368  INH368      0.0487
     58  H8        16.4700  -14.5220   36.7750 H     368  INH368      0.0487
     59  H9        18.7600  -13.9860   36.7780 H     368  INH368      0.1488
     60  H10       20.8500  -14.3790   36.3970 H     368  INH368      0.0384
     61  H11       21.2230  -14.1780   34.6520 H     368  INH368      0.0384
     62  H12       21.2570  -16.6150   34.3660 H     368  INH368      0.0603
     63  H13       23.2830  -17.1380   35.5040 H     368  INH368      0.0323
     64  H14       24.6740  -15.1630   35.0450 H     368  INH368      0.0233
     65  H15       23.1900  -14.1600   34.9070 H     368  INH368      0.0233
     66  H16       23.4880  -15.4900   33.7360 H     368  INH368      0.0233
     67  H17       22.7470  -14.7890   37.3660 H     368  INH368      0.0269
     68  H18       24.2020  -15.8430   37.3570 H     368  INH368      0.0269
     69  H19       22.5280  -16.4940   39.0870 H     368  INH368      0.0290
     70  H20       22.8520  -17.7910   37.8880 H     368  INH368      0.0290
     71  H21       20.4260  -15.9410   38.0370 H     368  INH368      0.0600
     72  H22       20.8450  -18.1670   39.4240 H     368  INH368      0.0370
     73  H23       20.4890  -18.9700   37.8570 H     368  INH368      0.0370
     74  H24       16.8970  -18.8980   39.1180 H     368  INH368      0.0649
     75  H25       19.4480  -20.5450   38.7390 H     368  INH368      0.0570
     76  H26       17.9720  -22.4340   39.0920 H     368  INH368      0.0272
     77  H27       16.6490  -21.4590   38.3680 H     368  INH368      0.0272
     78  H28       16.9630  -21.3750   40.1340 H     368  INH368      0.0272
     79  H29       13.4660  -15.2580   35.2160 H     368  INH368      0.1487
     80  H30       12.1720  -14.4230   37.7110 H     368  INH368      0.0462
     81  H31       13.2900  -15.8210   37.8600 H     368  INH368      0.0462
     82  H32       12.0710  -17.0470   36.1430 H     368  INH368      0.0281
     83  H33       11.0300  -15.6210   35.8110 H     368  INH368      0.0281
     84  H34       10.1230  -15.7650   38.1290 H     368  INH368      0.0291
     85  H35       11.1340  -17.2210   38.4200 H     368  INH368      0.0291
     86  H36        9.0570  -16.9630   36.1910 H     368  INH368      0.0600
     87  H37        8.9250  -18.4900   38.8310 H     368  INH368      0.0323
     88  H38        6.8960  -17.1590   39.2730 H     368  INH368      0.0233
     89  H39        7.1890  -16.2180   37.7710 H     368  INH368      0.0233
     90  H40        8.3610  -16.1310   39.1290 H     368  INH368      0.0233
     91  H41        7.0080  -18.4640   36.4620 H     368  INH368      0.0270
     92  H42        6.8270  -19.3960   37.9870 H     368  INH368      0.0270
     93  H43        7.7150  -20.7730   36.0920 H     368  INH368      0.0317
     94  H44        8.8410  -20.6880   37.4890 H     368  INH368      0.0317
     95  H45        9.8920  -21.4620   34.8330 H     368  INH368      0.0317
     96  H46       10.9680  -21.0440   36.2090 H     368  INH368      0.0317
     97  H47       12.1260  -20.9470   33.9850 H     368  INH368      0.0268
     98  H48       12.1270  -19.3710   34.8450 H     368  INH368      0.0268
     99  H49       10.1820  -20.2350   32.6350 H     368  INH368      0.0290
    100  H50       11.5110  -19.0370   32.4760 H     368  INH368      0.0290
    101  H51       10.4580  -17.6360   34.2330 H     368  INH368      0.0597
    102  H52        8.3870  -18.4580   32.1620 H     368  INH368      0.0290
    103  H53        9.8280  -17.4550   31.7850 H     368  INH368      0.0290
    104  H54        9.0600  -15.8170   33.5290 H     368  INH368      0.0272
    105  H55        7.5580  -16.7870   33.7080 H     368  INH368      0.0272
    106  H56        8.4960  -15.5260   31.0930 H     368  INH368      0.0340
    107  H57        6.6980  -13.8570   31.4020 H     368  INH368      0.0235
    108  H58        7.9400  -13.7340   32.6930 H     368  INH368      0.0235
    109  H59        6.3610  -14.5190   33.0370 H     368  INH368      0.0235
    110  H60        5.7560  -16.7920   31.8360 H     368  INH368      0.0575
    111  H61        8.5350  -16.1490   29.4540 H     368  INH368      0.0275
    112  H62        7.3540  -16.2280   28.1030 H     368  INH368      0.0275
    113  H63        8.2000  -17.7170   28.6440 H     368  INH368      0.0275
    114  H64        4.6900  -17.8740   30.1980 H     368  INH368      0.0637
    115  H65        5.1350  -19.9100   28.8500 H     368  INH368      0.0258
    116  H66        6.3450  -19.7240   30.1650 H     368  INH368      0.0258
    117  H67        6.7840  -19.3020   28.4750 H     368  INH368      0.0258
    118  H68        4.7240  -16.4210   28.3800 H     368  INH368      0.2102
@<TRIPOS>BOND
     1     1     2    2
     2     2    25   am
     3     2     3    1
     4     3    51    1
     5     3     5    1
     6     3     4    1
     7     4    54    1
     8     4    53    1
     9     4    52    1
    10     5    55    1
    11     5     7    1
    12     5     6    1
    13     6    56    1
    14     7    58    1
    15     7    57    1
    16     7     8    1
    17     8    59    1
    18     8     9   am
    19     9    11    1
    20     9    10    2
    21    11    61    1
    22    11    60    1
    23    11    12    1
    24    12    62    1
    25    12    17    1
    26    12    13    1
    27    13    63    1
    28    13    15    1
    29    13    14    1
    30    14    66    1
    31    14    65    1
    32    14    64    1
    33    15    68    1
    34    15    67    1
    35    15    16    1
    36    16    70    1
    37    16    69    1
    38    16    18    1
    39    17    18    1
    40    18    71    1
    41    18    19    1
    42    19    73    1
    43    19    72    1
    44    19    20    1
    45    20    22    1
    46    20    21    2
    47    22    74    1
    48    22    23    2
    49    23    75    1
    50    23    24    1
    51    24    78    1
    52    24    77    1
    53    24    76    1
    54    25    79    1
    55    25    26    1
    56    26    81    1
    57    26    80    1
    58    26    27    1
    59    27    83    1
    60    27    82    1
    61    27    28    1
    62    28    85    1
    63    28    84    1
    64    28    29    1
    65    29    86    1
    66    29    35    1
    67    29    30    1
    68    30    87    1
    69    30    32    1
    70    30    31    1
    71    31    90    1
    72    31    89    1
    73    31    88    1
    74    32    92    1
    75    32    91    1
    76    32    33    1
    77    33    94    1
    78    33    93    1
    79    33    34    1
    80    34    40    1
    81    34    36    1
    82    34    35    1
    83    36    96    1
    84    36    95    1
    85    36    37    1
    86    37    98    1
    87    37    97    1
    88    37    38    1
    89    38   100    1
    90    38    99    1
    91    38    39    1
    92    39   101    1
    93    39    41    1
    94    39    40    1
    95    41   103    1
    96    41   102    1
    97    41    42    1
    98    42   105    1
    99    42   104    1
   100    42    43    1
   101    43   106    1
   102    43    45    1
   103    43    44    1
   104    44   109    1
   105    44   108    1
   106    44   107    1
   107    45   110    1
   108    45    46    2
   109    46    48    1
   110    46    47    1
   111    47   113    1
   112    47   112    1
   113    47   111    1
   114    48   114    1
   115    48    50    1
   116    48    49    1
   117    49   117    1
   118    49   116    1
   119    49   115    1
   120    50   118    1
