@<TRIPOS>MOLECULE
/tmp/ewbell/vina_2fxu_2fxu_lig/vina/vina4.pdbqt
 54 56 0 0 0
SMALL
GASTEIGER

@<TRIPOS>ATOM
      1  O1        17.6520  -13.6580   36.4360 O.2   368  INH368     -0.2730
      2  C1        16.7820  -12.9810   36.9550 C.2   368  INH368      0.2240
      3  N2        16.7130  -12.7580   38.2550 N.am  368  INH368     -0.3610
      4  H29       15.9620  -12.1880   38.5920 H     368  INH368      0.1620
      5  C19       17.6570  -13.2860   39.2320 C.3   368  INH368      0.1220
      6  C20       17.0210  -13.1770   40.6080 C.3   368  INH368      0.0220
      7  C21       17.7190  -14.0760   41.6270 C.3   368  INH368      0.0340
      8  C22       18.6930  -14.9960   40.9200 C.3   368  INH368      0.1290
      9  O6        19.9660  -14.6650   41.4550 O.3   368  INH368     -0.3490
     10  C27       21.0960  -15.2740   40.8420 C.3   368  INH368      0.1650
     11  C26       20.9410  -16.7740   41.0790 C.3   368  INH368      0.0690
     12  O7        21.1940  -15.0070   39.4390 O.3   368  INH368     -0.3500
     13  C28       22.3220  -14.6980   41.5450 C.3   368  INH368      0.0680
     14  C25       19.5960  -17.2730   40.5540 C.3   368  INH368      0.0120
     15  C23       18.4410  -16.4840   41.1640 C.3   368  INH368      0.0110
     16  C24       17.0670  -16.9180   40.6480 C.3   368  INH368      0.0120
     17  C31       21.2970  -13.5960   39.1300 C.3   368  INH368      0.1250
     18  C30       22.5730  -13.0340   39.7310 C.3   368  INH368      0.0320
     19  C29       22.5160  -13.2160   41.2410 C.3   368  INH368      0.0080
     20  C32       21.3170  -13.4550   37.6310 C.3   368  INH368      0.0330
     21  C33       21.6380  -14.7690   36.9230 C.3   368  INH368      0.0100
     22  C34       22.6880  -14.6220   35.8100 C.3   368  INH368      0.0040
     23  C35       23.3030  -15.9600   35.3890 C.3   368  INH368      0.0140
     24  C36       23.7850  -13.6830   36.2740 C.2   368  INH368     -0.0180
     25  C37       24.4910  -12.8650   35.4650 C.2   368  INH368     -0.0590
     26  C38       24.3120  -12.7980   33.9650 C.3   368  INH368      0.0460
     27  C39       25.5560  -11.9700   36.0470 C.3   368  INH368      0.1420
     28  C40       26.8990  -12.6900   36.0180 C.3   368  INH368      0.0440
     29  O8        25.2070  -11.6430   37.3970 O.3   368  INH368     -0.3920
     30  H68       25.2460  -10.7010   37.5150 H     368  INH368      0.2100
     31  C2        15.7210  -12.3720   36.0830 C.3   368  INH368      0.1040
     32  C3        16.1970  -12.4380   34.6130 C.3   368  INH368      0.0220
     33  C4        14.3400  -13.0020   36.3110 C.3   368  INH368      0.1480
     34  C5        14.4340  -14.5330   36.2250 C.3   368  INH368      0.1550
     35  N1        13.1130  -15.1610   36.1860 N.am  368  INH368     -0.3590
     36  H9        12.6750  -15.2590   35.2930 H     368  INH368      0.1620
     37  C6        12.4550  -15.6080   37.2450 C.2   368  INH368      0.2200
     38  O3        12.9530  -15.5090   38.3660 O.2   368  INH368     -0.2740
     39  C7        11.0680  -16.1720   37.0420 C.3   368  INH368      0.1350
     40  C8        11.1100  -17.5110   36.3190 C.3   368  INH368      0.1340
     41  O4        10.7810  -17.3200   34.9350 O.3   368  INH368     -0.3790
     42  C13        9.4220  -17.0540   34.5670 C.3   368  INH368      0.1290
     43  C12        8.4750  -18.0670   35.1990 C.3   368  INH368      0.0330
     44  C11        8.7110  -18.1990   36.6860 C.3   368  INH368      0.0090
     45  C9        10.1710  -18.5390   36.9510 C.3   368  INH368      0.0110
     46  C10       10.4260  -18.7110   38.4320 C.3   368  INH368      0.0120
     47  C14        9.2970  -17.1690   33.0500 C.3   368  INH368      0.1140
     48  C15        8.2290  -16.2540   32.4840 C.2   368  INH368      0.1510
     49  O5         7.8900  -15.2660   33.1080 O.2   368  INH368     -0.2930
     50  C16        7.5630  -16.5260   31.1880 C.2   368  INH368      0.0460
     51  C17        8.2360  -16.7220   30.0520 C.2   368  INH368     -0.0270
     52  C18        7.4890  -16.9900   28.7650 C.3   368  INH368      0.0360
     53  O2        13.4060  -12.4720   35.3760 O.3   368  INH368     -0.3930
     54  H6        12.5520  -12.8610   35.5260 H     368  INH368      0.2100
@<TRIPOS>BOND
     1    52    51    1
     2    51    50    2
     3    50    48    1
     4    48    47    1
     5    48    49    2
     6    47    42    1
     7    26    25    1
     8    42    41    1
     9    42    43    1
    10    32    31    1
    11    41    40    1
    12    43    44    1
    13    36    35    1
    14    53    54    1
    15    53    33    1
    16    23    22    1
    17    25    27    1
    18    25    24    2
    19    22    24    1
    20    22    21    1
    21    28    27    1
    22    27    29    1
    23    31    33    1
    24    31     2    1
    25    35    34    1
    26    35    37   am
    27    34    33    1
    28    40    45    1
    29    40    39    1
    30     1     2    2
    31    44    45    1
    32    21    20    1
    33    45    46    1
    34     2     3   am
    35    39    37    1
    36    37    38    2
    37    29    30    1
    38    20    17    1
    39     3     4    1
    40     3     5    1
    41    17    12    1
    42    17    18    1
    43     5     6    1
    44    12    10    1
    45    18    19    1
    46    14    11    1
    47    14    15    1
    48     6     7    1
    49    16    15    1
    50    10    11    1
    51    10     9    1
    52    10    13    1
    53     8    15    1
    54     8     9    1
    55     8     7    1
    56    19    13    1
