@<TRIPOS>MOLECULE
/tmp/ewbell/vina_2fxu_2fxu_lig/vina/vina2.pdbqt
 54 56 0 0 0
SMALL
GASTEIGER

@<TRIPOS>ATOM
      1  O1        18.8240  -18.6190   41.5500 O.2   368  INH368     -0.2730
      2  C1        19.3450  -17.6430   41.0390 C.2   368  INH368      0.2240
      3  N2        20.6490  -17.4310   41.0350 N.am  368  INH368     -0.3610
      4  H29       20.9860  -16.6010   40.5900 H     368  INH368      0.1620
      5  C19       21.6290  -18.3270   41.6360 C.3   368  INH368      0.1220
      6  C20       22.7060  -18.6090   40.6020 C.3   368  INH368      0.0220
      7  C21       22.2340  -19.6130   39.5510 C.3   368  INH368      0.0340
      8  C22       22.4490  -19.0440   38.1640 C.3   368  INH368      0.1290
      9  O6        23.6840  -19.5930   37.7280 O.3   368  INH368     -0.3490
     10  C27       24.2120  -19.0930   36.5060 C.3   368  INH368      0.1650
     11  C26       23.2020  -19.4760   35.4270 C.3   368  INH368      0.0690
     12  O7        24.4090  -17.6750   36.5110 O.3   368  INH368     -0.3500
     13  C28       25.5590  -19.7820   36.3120 C.3   368  INH368      0.0680
     14  C25       21.8090  -18.9520   35.7720 C.3   368  INH368      0.0120
     15  C23       21.3690  -19.4300   37.1530 C.3   368  INH368      0.0110
     16  C24       19.9910  -18.9050   37.5690 C.3   368  INH368      0.0120
     17  C31       25.3220  -17.2270   37.5410 C.3   368  INH368      0.1250
     18  C30       26.6990  -17.8180   37.2950 C.3   368  INH368      0.0320
     19  C29       26.5880  -19.3350   37.3460 C.3   368  INH368      0.0080
     20  C32       25.3790  -15.7240   37.4820 C.3   368  INH368      0.0330
     21  C33       24.6230  -15.0620   38.6310 C.3   368  INH368      0.0100
     22  C34       25.2160  -13.7090   39.0530 C.3   368  INH368      0.0040
     23  C35       24.5430  -13.1250   40.2990 C.3   368  INH368      0.0140
     24  C36       25.0950  -12.7260   37.9040 C.2   368  INH368     -0.0180
     25  C37       23.9370  -12.1820   37.4760 C.2   368  INH368     -0.0590
     26  C38       22.5810  -12.5080   38.0610 C.3   368  INH368      0.0460
     27  C39       23.9450  -11.2080   36.3240 C.3   368  INH368      0.1420
     28  C40       24.6230  -11.8500   35.1200 C.3   368  INH368      0.0440
     29  O8        24.6580  -10.0280   36.7130 O.3   368  INH368     -0.3920
     30  H68       24.2180   -9.6210   37.4510 H     368  INH368      0.2100
     31  C2        18.4680  -16.6130   40.3840 C.3   368  INH368      0.1040
     32  C3        17.2270  -17.3260   39.7970 C.3   368  INH368      0.0220
     33  C4        18.1210  -15.4520   41.3260 C.3   368  INH368      0.1480
     34  C5        18.7310  -14.1430   40.8030 C.3   368  INH368      0.1550
     35  N1        18.1400  -13.7350   39.5280 N.am  368  INH368     -0.3590
     36  H9        18.4870  -14.1710   38.6970 H     368  INH368      0.1620
     37  C6        17.1820  -12.8300   39.3910 C.2   368  INH368      0.2200
     38  O3        16.7240  -12.2660   40.3840 O.2   368  INH368     -0.2740
     39  C7        16.7260  -12.4730   37.9960 C.3   368  INH368      0.1350
     40  C8        16.2590  -13.7020   37.2290 C.3   368  INH368      0.1340
     41  O4        17.3800  -14.5590   36.9650 O.3   368  INH368     -0.3790
     42  C13       18.3330  -14.1790   35.9670 C.3   368  INH368      0.1290
     43  C12       17.6400  -13.8010   34.6630 C.3   368  INH368      0.0330
     44  C11       16.5320  -12.7990   34.8900 C.3   368  INH368      0.0090
     45  C9        15.5520  -13.3360   35.9240 C.3   368  INH368      0.0110
     46  C10       14.4130  -12.3640   36.1440 C.3   368  INH368      0.0120
     47  C14       19.2500  -15.3680   35.6900 C.3   368  INH368      0.1140
     48  C15       20.4880  -15.3640   36.5630 C.2   368  INH368      0.1510
     49  O5        20.3720  -15.2680   37.7710 O.2   368  INH368     -0.2930
     50  C16       21.8540  -15.4620   35.9970 C.2   368  INH368      0.0460
     51  C17       22.1680  -15.0230   34.7760 C.2   368  INH368     -0.0270
     52  C18       23.5830  -15.1600   34.2620 C.3   368  INH368      0.0360
     53  O2        18.5600  -15.7530   42.6480 O.3   368  INH368     -0.3930
     54  H6        18.6420  -16.6950   42.7480 H     368  INH368      0.2100
@<TRIPOS>BOND
     1    52    51    1
     2    43    44    1
     3    43    42    1
     4    51    50    2
     5    44    45    1
     6    28    27    1
     7    11    14    1
     8    11    10    1
     9    47    42    1
    10    47    48    1
    11    14    15    1
    12    45    46    1
    13    45    40    1
    14    42    41    1
    15    50    48    1
    16    13    10    1
    17    13    19    1
    18    27    29    1
    19    27    25    1
    20    10    12    1
    21    10     9    1
    22    12    17    1
    23    48    49    2
    24    29    30    1
    25    41    40    1
    26    15    16    1
    27    15     8    1
    28    40    39    1
    29    18    19    1
    30    18    17    1
    31    25    24    2
    32    25    26    1
    33    20    17    1
    34    20    21    1
    35     9     8    1
    36    24    22    1
    37    39    37    1
    38     8     7    1
    39    21    22    1
    40    36    35    1
    41    22    23    1
    42    37    35   am
    43    37    38    2
    44    35    34    1
    45     7     6    1
    46    32    31    1
    47    31     2    1
    48    31    33    1
    49     4     3    1
    50     6     5    1
    51    34    33    1
    52     3     2   am
    53     3     5    1
    54     2     1    2
    55    33    53    1
    56    53    54    1
