@<TRIPOS>MOLECULE
/tmp/ewbell/vina_2fxu_2fxu_lig/vina/vina3.pdbqt
 54 56 0 0 0
SMALL
GASTEIGER

@<TRIPOS>ATOM
      1  O1        17.4700  -13.7210   34.3350 O.2   368  INH368     -0.2730
      2  C1        17.1310  -13.8110   35.5030 C.2   368  INH368      0.2240
      3  N2        17.8630  -14.4030   36.4290 N.am  368  INH368     -0.3610
      4  H29       17.5040  -14.4280   37.3630 H     368  INH368      0.1620
      5  C19       19.1590  -15.0220   36.1820 C.3   368  INH368      0.1220
      6  C20       19.8590  -15.1980   37.5190 C.3   368  INH368      0.0220
      7  C21       21.0020  -16.2090   37.4320 C.3   368  INH368      0.0340
      8  C22       20.6010  -17.4970   38.1210 C.3   368  INH368      0.1290
      9  O6        19.3280  -17.2310   38.6890 O.3   368  INH368     -0.3490
     10  C27       18.7850  -18.2320   39.5410 C.3   368  INH368      0.1650
     11  C26       18.5780  -19.4620   38.6610 C.3   368  INH368      0.0690
     12  O7        19.6330  -18.5580   40.6470 O.3   368  INH368     -0.3500
     13  C28       17.4690  -17.6700   40.0710 C.3   368  INH368      0.0680
     14  C25       19.8810  -19.8630   37.9700 C.3   368  INH368      0.0120
     15  C23       20.4660  -18.6950   37.1800 C.3   368  INH368      0.0110
     16  C24       21.7930  -19.0290   36.4920 C.3   368  INH368      0.0120
     17  C31       19.9140  -17.4270   41.5060 C.3   368  INH368      0.1250
     18  C30       18.6240  -16.9270   42.1310 C.3   368  INH368      0.0320
     19  C29       17.6860  -16.4900   41.0140 C.3   368  INH368      0.0080
     20  C32       20.8680  -17.8900   42.5750 C.3   368  INH368      0.0330
     21  C33       22.1840  -17.1170   42.5610 C.3   368  INH368      0.0100
     22  C34       22.4980  -16.4700   41.2030 C.3   368  INH368      0.0040
     23  C35       23.5500  -17.2430   40.4020 C.3   368  INH368      0.0140
     24  C36       22.9730  -15.0460   41.4220 C.2   368  INH368     -0.0180
     25  C37       22.1940  -13.9500   41.3140 C.2   368  INH368     -0.0590
     26  C38       20.7350  -13.9840   40.9180 C.3   368  INH368      0.0460
     27  C39       22.7820  -12.5830   41.5620 C.3   368  INH368      0.1420
     28  C40       23.1240  -11.9260   40.2310 C.3   368  INH368      0.0440
     29  O8        23.9650  -12.7200   42.3580 O.3   368  INH368     -0.3920
     30  H68       24.6680  -12.2110   41.9700 H     368  INH368      0.2100
     31  C2        15.8090  -13.2310   35.9200 C.3   368  INH368      0.1040
     32  C3        15.2870  -12.3260   34.7790 C.3   368  INH368      0.0220
     33  C4        14.8070  -14.3090   36.3570 C.3   368  INH368      0.1480
     34  C5        13.3690  -13.8250   36.1180 C.3   368  INH368      0.1550
     35  N1        12.3980  -14.9140   36.2330 N.am  368  INH368     -0.3590
     36  H9        12.2810  -15.5130   35.4420 H     368  INH368      0.1620
     37  C6        11.6630  -15.1630   37.3070 C.2   368  INH368      0.2200
     38  O3        11.7710  -14.4510   38.3050 O.2   368  INH368     -0.2740
     39  C7        10.6560  -16.2880   37.2420 C.3   368  INH368      0.1350
     40  C8        11.2530  -17.5340   36.6040 C.3   368  INH368      0.1340
     41  O4        11.0600  -17.4860   35.1820 O.3   368  INH368     -0.3790
     42  C13        9.7530  -17.7170   34.6430 C.3   368  INH368      0.1290
     43  C12        9.1420  -18.9910   35.2150 C.3   368  INH368      0.0330
     44  C11        9.2150  -19.0170   36.7240 C.3   368  INH368      0.0090
     45  C9        10.6560  -18.8200   37.1760 C.3   368  INH368      0.0110
     46  C10       10.7610  -18.8750   38.6850 C.3   368  INH368      0.0120
     47  C14        9.8720  -17.8850   33.1310 C.3   368  INH368      0.1140
     48  C15        8.7580  -17.1840   32.3790 C.2   368  INH368      0.1510
     49  O5         8.3040  -17.6880   31.3690 O.2   368  INH368     -0.2930
     50  C16        8.2020  -15.8840   32.8230 C.2   368  INH368      0.0460
     51  C17        7.4370  -15.1160   32.0450 C.2   368  INH368     -0.0270
     52  C18        6.9070  -13.7990   32.5660 C.3   368  INH368      0.0360
     53  O2        15.0320  -14.6550   37.7210 O.3   368  INH368     -0.3930
     54  H6        15.9550  -14.5570   37.9240 H     368  INH368      0.2100
@<TRIPOS>BOND
     1    49    48    2
     2    51    52    1
     3    51    50    2
     4    48    50    1
     5    48    47    1
     6    47    42    1
     7     1     2    2
     8    42    41    1
     9    42    43    1
    10    32    31    1
    11    41    40    1
    12    43    44    1
    13    36    35    1
    14     2    31    1
    15     2     3   am
    16    31    33    1
    17    34    35    1
    18    34    33    1
    19     5     3    1
    20     5     6    1
    21    35    37   am
    22    33    53    1
    23     3     4    1
    24    16    15    1
    25    40    45    1
    26    40    39    1
    27    44    45    1
    28    45    46    1
    29    15    14    1
    30    15     8    1
    31    39    37    1
    32    37    38    2
    33     7     6    1
    34     7     8    1
    35    53    54    1
    36    14    11    1
    37     8     9    1
    38    11    10    1
    39     9    10    1
    40    10    13    1
    41    10    12    1
    42    13    19    1
    43    28    27    1
    44    23    22    1
    45    12    17    1
    46    26    25    1
    47    19    18    1
    48    22    24    1
    49    22    21    1
    50    25    24    2
    51    25    27    1
    52    17    18    1
    53    17    20    1
    54    27    29    1
    55    30    29    1
    56    21    20    1
