@<TRIPOS>MOLECULE
/tmp/ewbell/vina_2fxu_2fxu_lig/vina/vina5.pdbqt
 54 56 0 0 0
SMALL
GASTEIGER

@<TRIPOS>ATOM
      1  O1        21.9600  -18.2320   39.0330 O.2   368  INH368     -0.2730
      2  C1        22.9590  -17.7250   39.5130 C.2   368  INH368      0.2240
      3  N2        24.1850  -18.0160   39.1170 N.am  368  INH368     -0.3610
      4  H29       24.9450  -17.5490   39.5690 H     368  INH368      0.1620
      5  C19       24.5030  -18.9720   38.0640 C.3   368  INH368      0.1220
      6  C20       25.7490  -19.7350   38.4820 C.3   368  INH368      0.0220
      7  C21       26.6020  -20.1300   37.2770 C.3   368  INH368      0.0340
      8  C22       27.5270  -18.9890   36.9060 C.3   368  INH368      0.1290
      9  O6        27.8310  -18.3460   38.1350 O.3   368  INH368     -0.3490
     10  C27       28.5630  -17.1290   38.0570 C.3   368  INH368      0.1650
     11  C26       29.9160  -17.4930   37.4520 C.3   368  INH368      0.0690
     12  O7        27.9200  -16.1310   37.2560 O.3   368  INH368     -0.3500
     13  C28       28.6850  -16.6150   39.4880 C.3   368  INH368      0.0680
     14  C25       29.7410  -18.2080   36.1130 C.3   368  INH368      0.0120
     15  C23       28.8400  -19.4320   36.2580 C.3   368  INH368      0.0110
     16  C24       28.5990  -20.1700   34.9380 C.3   368  INH368      0.0120
     17  C31       26.6070  -15.7650   37.7410 C.3   368  INH368      0.1250
     18  C30       26.7270  -15.1470   39.1230 C.3   368  INH368      0.0320
     19  C29       27.3400  -16.1780   40.0600 C.3   368  INH368      0.0080
     20  C32       26.0210  -14.7720   36.7730 C.3   368  INH368      0.0330
     21  C33       27.0290  -13.7110   36.3390 C.3   368  INH368      0.0100
     22  C34       26.4830  -12.2770   36.4310 C.3   368  INH368      0.0040
     23  C35       27.5650  -11.2470   36.7710 C.3   368  INH368      0.0140
     24  C36       25.3850  -12.2220   37.4760 C.2   368  INH368     -0.0180
     25  C37       24.2770  -11.4560   37.3880 C.2   368  INH368     -0.0590
     26  C38       23.9920  -10.5080   36.2450 C.3   368  INH368      0.0460
     27  C39       23.2500  -11.4930   38.4920 C.3   368  INH368      0.1420
     28  C40       23.9030  -11.9810   39.7790 C.3   368  INH368      0.0440
     29  O8        22.1900  -12.3790   38.1160 O.3   368  INH368     -0.3920
     30  H68       22.0960  -12.3770   37.1700 H     368  INH368      0.2100
     31  C2        22.8020  -16.7230   40.6220 C.3   368  INH368      0.1040
     32  C3        24.0250  -16.8350   41.5620 C.3   368  INH368      0.0220
     33  C4        22.5560  -15.3010   40.0990 C.3   368  INH368      0.1480
     34  C5        21.1390  -14.8370   40.4680 C.3   368  INH368      0.1550
     35  N1        20.3430  -14.5140   39.2840 N.am  368  INH368     -0.3590
     36  H9        20.6760  -14.8420   38.4000 H     368  INH368      0.1620
     37  C6        19.2160  -13.8180   39.2940 C.2   368  INH368      0.2200
     38  O3        18.7670  -13.3910   40.3580 O.2   368  INH368     -0.2740
     39  C7        18.5480  -13.5120   37.9740 C.3   368  INH368      0.1350
     40  C8        18.0180  -14.7760   37.3110 C.3   368  INH368      0.1340
     41  O4        19.1030  -15.4910   36.7020 O.3   368  INH368     -0.3790
     42  C13       19.6870  -14.9870   35.4960 C.3   368  INH368      0.1290
     43  C12       18.6150  -14.6730   34.4580 C.3   368  INH368      0.0330
     44  C11       17.5160  -13.8110   35.0350 C.3   368  INH368      0.0090
     45  C9        16.9340  -14.4750   36.2750 C.3   368  INH368      0.0110
     46  C10       15.8070  -13.6470   36.8530 C.3   368  INH368      0.0120
     47  C14       20.6100  -16.0560   34.9160 C.3   368  INH368      0.1140
     48  C15       22.0340  -15.9300   35.4190 C.2   368  INH368      0.1510
     49  O5        22.5190  -16.8260   36.0820 O.2   368  INH368     -0.2930
     50  C16       22.8660  -14.7350   35.1400 C.2   368  INH368      0.0460
     51  C17       23.4270  -14.5000   33.9520 C.2   368  INH368     -0.0270
     52  C18       24.2680  -13.2620   33.7420 C.3   368  INH368      0.0360
     53  O2        22.7820  -15.2560   38.6930 O.3   368  INH368     -0.3930
     54  H6        22.2110  -15.8800   38.2600 H     368  INH368      0.2100
@<TRIPOS>BOND
     1    52    51    1
     2    51    50    2
     3    43    44    1
     4    43    42    1
     5    47    48    1
     6    47    42    1
     7    16    15    1
     8    44    45    1
     9    50    48    1
    10    48    49    2
    11    42    41    1
    12    14    15    1
    13    14    11    1
    14    26    25    1
    15    15     8    1
    16    45    46    1
    17    45    40    1
    18    21    22    1
    19    21    20    1
    20    22    23    1
    21    22    24    1
    22    41    40    1
    23    20    17    1
    24     8     7    1
    25     8     9    1
    26    30    29    1
    27    12    17    1
    28    12    10    1
    29     7     6    1
    30    40    39    1
    31    25    24    2
    32    25    27    1
    33    11    10    1
    34    17    18    1
    35    39    37    1
    36    10     9    1
    37    10    13    1
    38     5     6    1
    39     5     3    1
    40    29    27    1
    41    54    53    1
    42    36    35    1
    43    27    28    1
    44    53    33    1
    45     1     2    2
    46     3     2   am
    47     3     4    1
    48    18    19    1
    49    35    37   am
    50    35    34    1
    51    37    38    2
    52    13    19    1
    53     2    31    1
    54    33    34    1
    55    33    31    1
    56    31    32    1
