@<TRIPOS>MOLECULE
/tmp/ewbell/vina_2fxu_2fxu_lig/vina/vina1.pdbqt
 54 56 0 0 0
SMALL
GASTEIGER

@<TRIPOS>ATOM
      1  O1        17.2470  -14.7500   34.2760 O.2   368  INH368     -0.2730
      2  C1        17.2740  -14.2740   35.3980 C.2   368  INH368      0.2240
      3  N2        18.3040  -14.3970   36.2160 N.am  368  INH368     -0.3610
      4  H29       18.2370  -13.9720   37.1190 H     368  INH368      0.1620
      5  C19       19.5320  -15.1110   35.8900 C.3   368  INH368      0.1220
      6  C20       20.5650  -14.7810   36.9550 C.3   368  INH368      0.0220
      7  C21       20.1050  -13.6350   37.8550 C.3   368  INH368      0.0340
      8  C22       20.3590  -13.9890   39.3060 C.3   368  INH368      0.1290
      9  O6        19.7360  -15.2500   39.4940 O.3   368  INH368     -0.3490
     10  C27       19.6830  -15.7470   40.8250 C.3   368  INH368      0.1650
     11  C26       21.1350  -15.9530   41.2510 C.3   368  INH368      0.0690
     12  O7        19.0260  -14.8600   41.7370 O.3   368  INH368     -0.3500
     13  C28       18.9060  -17.0590   40.7580 C.3   368  INH368      0.0680
     14  C25       21.9380  -14.6630   41.0930 C.3   368  INH368      0.0120
     15  C23       21.8390  -14.1260   39.6670 C.3   368  INH368      0.0110
     16  C24       22.5980  -12.8130   39.4580 C.3   368  INH368      0.0120
     17  C31       17.6530  -14.5780   41.3720 C.3   368  INH368      0.1250
     18  C30       16.8410  -15.8610   41.4110 C.3   368  INH368      0.0320
     19  C29       17.4370  -16.8390   40.4090 C.3   368  INH368      0.0080
     20  C32       17.1110  -13.5850   42.3640 C.3   368  INH368      0.0330
     21  C33       15.6860  -13.9140   42.8050 C.3   368  INH368      0.0100
     22  C34       15.2640  -13.1940   44.0950 C.3   368  INH368      0.0040
     23  C35       15.6730  -11.7180   44.1160 C.3   368  INH368      0.0140
     24  C36       15.8700  -13.9050   45.2890 C.2   368  INH368     -0.0180
     25  C37       15.1660  -14.3940   46.3320 C.2   368  INH368     -0.0590
     26  C38       13.6670  -14.2650   46.4760 C.3   368  INH368      0.0460
     27  C39       15.8840  -15.0900   47.4610 C.3   368  INH368      0.1420
     28  C40       15.7320  -14.2760   48.7400 C.3   368  INH368      0.0440
     29  O8        17.2700  -15.2200   47.1270 O.3   368  INH368     -0.3920
     30  H68       17.4190  -16.0630   46.7150 H     368  INH368      0.2100
     31  C2        16.0750  -13.5150   35.8920 C.3   368  INH368      0.1040
     32  C3        15.5900  -12.5750   34.7640 C.3   368  INH368      0.0220
     33  C4        14.9780  -14.4390   36.4370 C.3   368  INH368      0.1480
     34  C5        13.5910  -13.8990   36.0570 C.3   368  INH368      0.1550
     35  N1        12.5520  -14.9220   36.1810 N.am  368  INH368     -0.3590
     36  H9        12.4390  -15.5590   35.4190 H     368  INH368      0.1620
     37  C6        11.7500  -15.0650   37.2260 C.2   368  INH368      0.2200
     38  O3        11.8510  -14.3030   38.1870 O.2   368  INH368     -0.2740
     39  C7        10.6820  -16.1320   37.1690 C.3   368  INH368      0.1350
     40  C8        11.1960  -17.4010   36.5030 C.3   368  INH368      0.1340
     41  O4        10.9570  -17.3320   35.0900 O.3   368  INH368     -0.3790
     42  C13        9.6230  -17.4960   34.5950 C.3   368  INH368      0.1290
     43  C12        8.9710  -18.7430   35.1790 C.3   368  INH368      0.0330
     44  C11        9.0940  -18.7840   36.6840 C.3   368  INH368      0.0090
     45  C9        10.5560  -18.6610   37.0880 C.3   368  INH368      0.0110
     46  C10       10.7100  -18.7330   38.5920 C.3   368  INH368      0.0120
     47  C14        9.6820  -17.6570   33.0780 C.3   368  INH368      0.1140
     48  C15        8.3150  -17.5650   32.4290 C.2   368  INH368      0.1510
     49  O5         7.7190  -18.5830   32.1340 O.2   368  INH368     -0.2930
     50  C16        7.6710  -16.2640   32.1260 C.2   368  INH368      0.0460
     51  C17        7.8010  -15.1900   32.9070 C.2   368  INH368     -0.0270
     52  C18        7.1110  -13.8960   32.5370 C.3   368  INH368      0.0360
     53  O2        15.1250  -14.5860   37.8470 O.3   368  INH368     -0.3930
     54  H6        14.3800  -15.0630   38.1950 H     368  INH368      0.2100
@<TRIPOS>BOND
     1    50    48    1
     2    50    51    2
     3    49    48    2
     4    48    47    1
     5    52    51    1
     6    47    42    1
     7     1     2    2
     8    42    41    1
     9    42    43    1
    10    32    31    1
    11    41    40    1
    12    43    44    1
    13     2    31    1
    14     2     3   am
    15    36    35    1
    16     5     3    1
    17     5     6    1
    18    31    33    1
    19    34    35    1
    20    34    33    1
    21    35    37   am
    22     3     4    1
    23    33    53    1
    24    40    45    1
    25    40    39    1
    26    44    45    1
    27     6     7    1
    28    45    46    1
    29    39    37    1
    30    37    38    2
    31    53    54    1
    32     7     8    1
    33     8     9    1
    34     8    15    1
    35    16    15    1
    36     9    10    1
    37    15    14    1
    38    19    13    1
    39    19    18    1
    40    13    10    1
    41    10    11    1
    42    10    12    1
    43    14    11    1
    44    17    18    1
    45    17    12    1
    46    17    20    1
    47    20    21    1
    48    21    22    1
    49    22    23    1
    50    22    24    1
    51    24    25    2
    52    25    26    1
    53    25    27    1
    54    30    29    1
    55    29    27    1
    56    27    28    1
