@<TRIPOS>MOLECULE
./ligand/1s7y_lig.pdb
 18 17 0 0 0
SMALL
GASTEIGER

@<TRIPOS>ATOM
      1  N1        32.3880   15.8890   38.8650 N.4   507  INH507      0.2289
      2  C1        33.2230   14.6500   38.8230 C.3   507  INH507      0.0790
      3  C2        32.9700   13.6790   39.9910 C.2   507  INH507      0.4026
      4  O1        33.7890   12.7370   40.1400 O.co2 507  INH507     -0.2400
      5  C3        34.7080   15.0210   38.7940 C.3   507  INH507      0.0111
      6  C4        35.1960   15.6180   37.4800 C.3   507  INH507      0.0548
      7  C5        35.1080   14.6390   36.3200 C.2   507  INH507      0.3562
      8  O2        35.1740   13.4170   36.5910 O.co2 507  INH507     -0.2464
      9  O3        34.9890   15.0810   35.1470 O.co2 507  INH507     -0.2464
     10  O4        31.9740   13.8540   40.7370 O.co2 507  INH507     -0.2400
     11  H1        32.6100   16.4710   38.0720 H     507  INH507      0.2002
     12  H2        32.5790   16.3940   39.7160 H     507  INH507      0.2002
     13  H3        31.4120   15.6380   38.8350 H     507  INH507      0.2002
     14  H4        32.9790   14.1200   37.8910 H     507  INH507      0.0970
     15  H5        35.2920   14.1100   38.9930 H     507  INH507      0.0331
     16  H6        34.8920   15.7550   39.5920 H     507  INH507      0.0331
     17  H7        36.2450   15.9250   37.6020 H     507  INH507      0.0381
     18  H8        34.5810   16.4990   37.2440 H     507  INH507      0.0381
@<TRIPOS>BOND
     1     1    12    1
     2     1    13    1
     3     1     2    1
     4     1    11    1
     5     2     3    1
     6     2     5    1
     7     2    14    1
     8     3    10   ar
     9     3     4   ar
    10     5    16    1
    11     5    15    1
    12     5     6    1
    13     6    17    1
    14     6    18    1
    15     6     7    1
    16     7     8   ar
    17     7     9   ar
