@<TRIPOS>MOLECULE
/tmp/ewbell/vina_1s7y_1s7y_lig/vina/vina4.pdbqt
 15 14 0 0 0
SMALL
GASTEIGER

@<TRIPOS>ATOM
      1  C1        20.0110   24.2900   36.8980 C.3   507  INH507      0.2800
      2  N1        20.6210   24.3660   38.2610 N.4   507  INH507     -0.0650
      3  H2        20.3770   25.2440   38.6900 H     507  INH507      0.2750
      4  H3        21.6240   24.2960   38.1850 H     507  INH507      0.2750
      5  H1        20.2730   23.6070   38.8270 H     507  INH507      0.2750
      6  C2        18.4840   24.0970   36.9010 C.2   507  INH507      0.1710
      7  O4        17.7660   24.8290   36.1750 O.2   507  INH507     -0.6480
      8  O1        18.0230   23.1920   37.6430 O.3   507  INH507     -0.7750
      9  H         17.2690   22.7040   37.3740 H     507  INH507      0.1670
     10  C3        20.6580   23.1560   36.0980 C.3   507  INH507      0.0540
     11  C4        20.9460   23.4820   34.6390 C.3   507  INH507      0.1120
     12  C5        21.6380   22.3430   33.9060 C.2   507  INH507      0.1390
     13  O2        22.6170   22.6360   33.1800 O.2   507  INH507     -0.6500
     14  O3        21.2040   21.1700   34.0390 O.3   507  INH507     -0.7760
     15  H         21.1070   20.8000   34.8940 H     507  INH507      0.1670
@<TRIPOS>BOND
     1    13    12    2
     2    12    14    1
     3    12    11    1
     4    14    15    1
     5    11    10    1
     6    10     1    1
     7     7     6    2
     8     1     6    1
     9     1     2    1
    10     6     8    1
    11     9     8    1
    12     4     2    1
    13     2     3    1
    14     2     5    1
