@<TRIPOS>MOLECULE
/tmp/ewbell/vina_1s7y_1s7y_lig/vina/vina2.pdbqt
 15 14 0 0 0
SMALL
GASTEIGER

@<TRIPOS>ATOM
      1  C1        43.1550    4.1960   40.8360 C.3   507  INH507      0.2800
      2  N1        43.5220    5.6430   40.9180 N.4   507  INH507     -0.0650
      3  H2        43.0210    6.0740   41.6800 H     507  INH507      0.2750
      4  H3        43.2790    6.1010   40.0540 H     507  INH507      0.2750
      5  H1        44.5140    5.7300   41.0770 H     507  INH507      0.2750
      6  C2        41.8350    3.9220   40.0920 C.2   507  INH507      0.1710
      7  O4        41.8680    3.4370   38.9330 O.2   507  INH507     -0.6480
      8  O1        40.7690    4.1990   40.6970 O.3   507  INH507     -0.7750
      9  H         40.5170    3.7060   41.4530 H     507  INH507      0.1670
     10  C3        43.0700    3.5970   42.2420 C.3   507  INH507      0.0540
     11  C4        43.3140    4.5840   43.3770 C.3   507  INH507      0.1120
     12  C5        42.0470    4.9250   44.1440 C.2   507  INH507      0.1390
     13  O2        42.1030    4.8840   45.3960 O.2   507  INH507     -0.6500
     14  O3        41.0000    5.2180   43.5090 O.3   507  INH507     -0.7760
     15  H         40.9540    5.0640   42.5860 H     507  INH507      0.1670
@<TRIPOS>BOND
     1     7     6    2
     2     4     2    1
     3     6     8    1
     4     6     1    1
     5     8     9    1
     6     1     2    1
     7     1    10    1
     8     2     5    1
     9     2     3    1
    10    10    11    1
    11    15    14    1
    12    11    12    1
    13    14    12    1
    14    12    13    2
