@<TRIPOS>MOLECULE
/tmp/ewbell/vina_1s7y_1s7y_lig/vina/vina1.pdbqt
 15 14 0 0 0
SMALL
GASTEIGER

@<TRIPOS>ATOM
      1  C1        35.6410   14.0640   37.2450 C.3   507  INH507      0.2800
      2  N1        36.0380   14.5000   35.8710 N.4   507  INH507     -0.0650
      3  H2        36.9140   14.0670   35.6220 H     507  INH507      0.2750
      4  H3        36.1420   15.5020   35.8530 H     507  INH507      0.2750
      5  H1        35.3280   14.2230   35.2120 H     507  INH507      0.2750
      6  C2        34.1430   13.7400   37.3950 C.2   507  INH507      0.1710
      7  O4        33.6020   13.8210   38.5270 O.2   507  INH507     -0.6480
      8  O1        33.5220   13.4080   36.3530 O.3   507  INH507     -0.7750
      9  H         32.7890   13.9150   36.0620 H     507  INH507      0.1670
     10  C3        36.0240   15.1390   38.2660 C.3   507  INH507      0.0540
     11  C4        35.9320   16.5710   37.7570 C.3   507  INH507      0.1120
     12  C5        34.5200   17.1300   37.8200 C.2   507  INH507      0.1390
     13  O2        34.2030   17.9940   36.9690 O.2   507  INH507     -0.6500
     14  O3        33.7360   16.7250   38.7180 O.3   507  INH507     -0.7760
     15  H         34.0460   16.6100   39.5940 H     507  INH507      0.1670
@<TRIPOS>BOND
     1     5     2    1
     2     3     2    1
     3     4     2    1
     4     2     1    1
     5     9     8    1
     6     8     6    1
     7    13    12    2
     8     1     6    1
     9     1    10    1
    10     6     7    2
    11    11    12    1
    12    11    10    1
    13    12    14    1
    14    14    15    1
