@<TRIPOS>MOLECULE
/tmp/ewbell/vina_1s7y_1s7y_lig/vina/vina5.pdbqt
 15 14 0 0 0
SMALL
GASTEIGER

@<TRIPOS>ATOM
      1  C1        20.1830   23.1030   34.1160 C.3   507  INH507      0.2800
      2  N1        18.7420   23.4330   33.8930 N.4   507  INH507     -0.0650
      3  H2        18.6450   23.9530   33.0360 H     507  INH507      0.2750
      4  H3        18.4010   23.9870   34.6630 H     507  INH507      0.2750
      5  H1        18.2080   22.5800   33.8310 H     507  INH507      0.2750
      6  C2        20.4530   21.6120   34.3880 C.2   507  INH507      0.1710
      7  O4        19.7070   20.9810   35.1790 O.2   507  INH507     -0.6480
      8  O1        21.4270   21.0880   33.7890 O.3   507  INH507     -0.7750
      9  H         22.2320   20.9390   34.2440 H     507  INH507      0.1670
     10  C3        20.7350   23.9310   35.2790 C.3   507  INH507      0.0540
     11  C4        19.6810   24.6260   36.1310 C.3   507  INH507      0.1120
     12  C5        19.4790   23.9570   37.4810 C.2   507  INH507      0.1390
     13  O2        18.4730   23.2200   37.6130 O.2   507  INH507     -0.6500
     14  O3        20.3040   24.1720   38.4070 O.3   507  INH507     -0.7760
     15  H         21.1020   23.6810   38.4470 H     507  INH507      0.1670
@<TRIPOS>BOND
     1     3     2    1
     2     8     9    1
     3     8     6    1
     4     5     2    1
     5     2     1    1
     6     2     4    1
     7     1     6    1
     8     1    10    1
     9     6     7    2
    10    10    11    1
    11    11    12    1
    12    12    13    2
    13    12    14    1
    14    14    15    1
