@<TRIPOS>MOLECULE
/tmp/ewbell/vina_1s7y_1s7y_lig/vina/vina3.pdbqt
 15 14 0 0 0
SMALL
GASTEIGER

@<TRIPOS>ATOM
      1  C1        20.1760   21.7480   35.1410 C.3   507  INH507      0.2800
      2  N1        20.7170   21.2340   33.8460 N.4   507  INH507     -0.0650
      3  H2        20.3920   21.8180   33.0910 H     507  INH507      0.2750
      4  H3        20.3980   20.2890   33.7000 H     507  INH507      0.2750
      5  H1        21.7250   21.2490   33.8730 H     507  INH507      0.2750
      6  C2        18.9160   21.0150   35.6340 C.2   507  INH507      0.1710
      7  O4        18.8920   19.7580   35.6380 O.2   507  INH507     -0.6480
      8  O1        17.9540   21.7260   36.0210 O.3   507  INH507     -0.7750
      9  H         18.1140   22.5760   36.3820 H     507  INH507      0.1670
     10  C3        19.8710   23.2440   35.0240 C.3   507  INH507      0.0540
     11  C4        20.6080   24.1310   36.0190 C.3   507  INH507      0.1120
     12  C5        19.8880   24.2430   37.3540 C.2   507  INH507      0.1390
     13  O2        18.6350   24.2710   37.3320 O.2   507  INH507     -0.6500
     14  O3        20.5620   24.3180   38.4140 O.3   507  INH507     -0.7760
     15  H         21.4680   24.5520   38.3780 H     507  INH507      0.1670
@<TRIPOS>BOND
     1     3     2    1
     2     4     2    1
     3     2     5    1
     4     2     1    1
     5    10     1    1
     6    10    11    1
     7     1     6    1
     8     6     7    2
     9     6     8    1
    10    11    12    1
    11     8     9    1
    12    13    12    2
    13    12    14    1
    14    15    14    1
