@<TRIPOS>MOLECULE
./ligand/2fpz_lig.pdb
 18 19 0 0 0
SMALL
GASTEIGER

@<TRIPOS>ATOM
      1  N1        32.0420   20.7960   83.2330 N.pl3 981  INH981     -0.3058
      2  C1        32.8570   21.5580   84.0050 C.3   981  INH981      0.2043
      3  C2        30.8320   20.7930   83.7940 C.ar  981  INH981      0.0509
      4  C3        29.6060   20.1670   83.4160 C.ar  981  INH981     -0.0390
      5  C4        28.4470   20.3620   84.2480 C.ar  981  INH981     -0.0599
      6  C5        28.5370   21.1730   85.4340 C.ar  981  INH981     -0.0599
      7  C6        29.7790   21.7960   85.8000 C.ar  981  INH981     -0.0390
      8  C7        30.9210   21.5940   84.9610 C.ar  981  INH981      0.0509
      9  N2        32.1820   22.0510   85.0650 N.pl3 981  INH981     -0.3058
     10  N3        34.1580   21.7870   83.7450 N.3   981  INH981     -0.2906
     11  H1        29.5490   19.5580   82.5210 H     981  INH981      0.0637
     12  H2        27.5050   19.8970   83.9810 H     981  INH981      0.0618
     13  H3        27.6610   21.3150   86.0560 H     981  INH981      0.0618
     14  H4        29.8500   22.4060   86.6930 H     981  INH981      0.0637
     15  H5        32.5580   22.6580   85.8070 H     981  INH981      0.1495
     16  H6        34.5980   21.3710   82.9110 H     981  INH981      0.1219
     17  H7        34.7140   22.3780   84.3800 H     981  INH981      0.1219
     18  H8        32.3100   20.3070   82.3670 H     981  INH981      0.1495
@<TRIPOS>BOND
     1    18     1    1
     2    11     4    1
     3    16    10    1
     4     1     3    1
     5     1     2    1
     6     4     3   ar
     7     4     5   ar
     8    10     2    1
     9    10    17    1
    10     3     8   ar
    11    12     5    1
    12     2     9    1
    13     5     6   ar
    14     8     9    1
    15     8     7   ar
    16     9    15    1
    17     6     7   ar
    18     6    13    1
    19     7    14    1
