@<TRIPOS>MOLECULE
/tmp/ewbell/vina_2fpz_2fpz_lig/vina/vina5.pdbqt
 14 15 0 0 0
SMALL
GASTEIGER

@<TRIPOS>ATOM
      1  N1        27.4670   21.7030   84.3650 N.pl3 981  INH981     -0.3440
      2  C1        26.9640   20.9690   83.3400 C.3   981  INH981      0.7370
      3  C2        28.7800   21.4740   84.4260 C.ar  981  INH981      0.0570
      4  C3        29.7960   21.9740   85.2950 C.ar  981  INH981      0.0310
      5  C4        31.1510   21.5280   85.0980 C.ar  981  INH981      0.0020
      6  C5        31.4610   20.5980   84.0440 C.ar  981  INH981      0.0020
      7  C6        30.4250   20.1050   83.1780 C.ar  981  INH981      0.0310
      8  C7        29.0840   20.5590   83.3860 C.ar  981  INH981      0.0570
      9  N2        27.9440   20.2660   82.7340 N.pl3 981  INH981     -0.3440
     10  N3        25.6660   20.9500   82.9820 N.3   981  INH981     -0.0820
     11  H5        27.8400   19.6300   81.9310 H     981  INH981      0.1630
     12  H6        24.9800   21.5190   83.4990 H     981  INH981      0.2610
     13  H7        25.3590   20.3660   82.1910 H     981  INH981      0.2610
     14  H8        26.9300   22.3260   84.9850 H     981  INH981      0.1630
@<TRIPOS>BOND
     1    11     9    1
     2    13    10    1
     3     9     2    1
     4     9     8    1
     5    10     2    1
     6    10    12    1
     7     7     8   ar
     8     7     6   ar
     9     2     1    1
    10     8     3   ar
    11     6     5   ar
    12     1     3    1
    13     1    14    1
    14     3     4   ar
    15     5     4   ar
