@<TRIPOS>MOLECULE
/tmp/ewbell/vina_2fpz_2fpz_lig/vina/vina4.pdbqt
 14 15 0 0 0
SMALL
GASTEIGER

@<TRIPOS>ATOM
      1  N1        25.7860   13.6570   92.9410 N.pl3 981  INH981     -0.3440
      2  C1        25.8190   14.9880   92.6780 C.3   981  INH981      0.7370
      3  C2        25.2600   13.4930   94.1560 C.ar  981  INH981      0.0570
      4  C3        24.9890   12.3240   94.9290 C.ar  981  INH981      0.0310
      5  C4        24.4000   12.4820   96.2340 C.ar  981  INH981      0.0020
      6  C5        24.0960   13.7960   96.7350 C.ar  981  INH981      0.0020
      7  C6        24.3750   14.9630   95.9440 C.ar  981  INH981      0.0310
      8  C7        24.9590   14.7890   94.6480 C.ar  981  INH981      0.0570
      9  N2        25.3160   15.6890   93.7150 N.pl3 981  INH981     -0.3440
     10  N3        26.2900   15.5270   91.5380 N.3   981  INH981     -0.0820
     11  H5        25.2230   16.7130   93.7790 H     981  INH981      0.1630
     12  H6        26.6590   14.9180   90.7920 H     981  INH981      0.2610
     13  H7        26.2830   16.5500   91.4100 H     981  INH981      0.2610
     14  H8        26.1100   12.9060   92.3140 H     981  INH981      0.1630
@<TRIPOS>BOND
     1    12    10    1
     2    13    10    1
     3    10     2    1
     4    14     1    1
     5     2     1    1
     6     2     9    1
     7     1     3    1
     8     9    11    1
     9     9     8    1
    10     3     8   ar
    11     3     4   ar
    12     8     7   ar
    13     4     5   ar
    14     7     6   ar
    15     5     6   ar
