@<TRIPOS>MOLECULE
/tmp/ewbell/vina_2fpz_2fpz_lig/vina/vina1.pdbqt
 14 15 0 0 0
SMALL
GASTEIGER

@<TRIPOS>ATOM
      1  N1        15.6360   11.7830   69.6280 N.pl3 981  INH981     -0.3440
      2  C1        15.0730   11.2870   68.4970 C.3   981  INH981      0.7370
      3  C2        16.9600   11.7470   69.4750 C.ar  981  INH981      0.0570
      4  C3        18.0310   12.1410   70.3320 C.ar  981  INH981      0.0310
      5  C4        19.3840   11.9750   69.8670 C.ar  981  INH981      0.0020
      6  C5        19.6370   11.4220   68.5620 C.ar  981  INH981      0.0020
      7  C6        18.5470   11.0320   67.7110 C.ar  981  INH981      0.0310
      8  C7        17.2080   11.2050   68.1880 C.ar  981  INH981      0.0570
      9  N2        16.0250   10.9300   67.6100 N.pl3 981  INH981     -0.3440
     10  N3        13.7470   11.1690   68.2950 N.3   981  INH981     -0.0820
     11  H5        15.8750   10.5270   66.6740 H     981  INH981      0.1630
     12  H6        13.0850   11.4660   69.0270 H     981  INH981      0.2610
     13  H7        13.3940   10.7810   67.4080 H     981  INH981      0.2610
     14  H8        15.1300   12.1260   70.4570 H     981  INH981      0.1630
@<TRIPOS>BOND
     1    11     9    1
     2    13    10    1
     3     9     8    1
     4     9     2    1
     5     7     8   ar
     6     7     6   ar
     7     8     3   ar
     8    10     2    1
     9    10    12    1
    10     2     1    1
    11     6     5   ar
    12     3     1    1
    13     3     4   ar
    14     1    14    1
    15     5     4   ar
