@<TRIPOS>MOLECULE
/tmp/ewbell/vina_2fpz_2fpz_lig/vina/vina2.pdbqt
 14 15 0 0 0
SMALL
GASTEIGER

@<TRIPOS>ATOM
      1  N1        32.1460   20.6750   83.8430 N.pl3 981  INH981     -0.3440
      2  C1        32.8210   21.8510   83.8850 C.3   981  INH981      0.7370
      3  C2        30.9080   20.8970   84.2860 C.ar  981  INH981      0.0570
      4  C3        29.7850   20.0320   84.4520 C.ar  981  INH981      0.0310
      5  C4        28.5570   20.5870   84.9620 C.ar  981  INH981      0.0020
      6  C5        28.4790   21.9860   85.2930 C.ar  981  INH981      0.0020
      7  C6        29.6200   22.8420   85.1190 C.ar  981  INH981      0.0310
      8  C7        30.8310   22.2760   84.6090 C.ar  981  INH981      0.0570
      9  N2        32.0260   22.8370   84.3530 N.pl3 981  INH981     -0.3440
     10  N3        34.1050   22.0080   83.5110 N.3   981  INH981     -0.0820
     11  H5        32.2840   23.8260   84.4860 H     981  INH981      0.1630
     12  H6        34.6430   21.2000   83.1640 H     981  INH981      0.2610
     13  H7        34.5500   22.9350   83.5720 H     981  INH981      0.2610
     14  H8        32.5240   19.7710   83.5250 H     981  INH981      0.1630
@<TRIPOS>BOND
     1    12    10    1
     2    10    13    1
     3    10     2    1
     4    14     1    1
     5     1     2    1
     6     1     3    1
     7     2     9    1
     8     3     4   ar
     9     3     8   ar
    10     9    11    1
    11     9     8    1
    12     4     5   ar
    13     8     7   ar
    14     5     6   ar
    15     7     6   ar
