@<TRIPOS>MOLECULE
/tmp/ewbell/vina_2fpz_2fpz_lig/vina/vina3.pdbqt
 14 15 0 0 0
SMALL
GASTEIGER

@<TRIPOS>ATOM
      1  N1        32.0010   22.8230   84.3590 N.pl3 981  INH981     -0.3440
      2  C1        32.8060   21.8340   83.8940 C.3   981  INH981      0.7370
      3  C2        30.8070   22.2900   84.6180 C.ar  981  INH981      0.0570
      4  C3        29.5970   22.8570   85.1210 C.ar  981  INH981      0.0310
      5  C4        28.4540   21.9980   85.2980 C.ar  981  INH981      0.0020
      6  C5        28.5430   20.6000   84.9690 C.ar  981  INH981      0.0020
      7  C6        29.7690   20.0450   84.4640 C.ar  981  INH981      0.0310
      8  C7        30.8960   20.9110   84.2960 C.ar  981  INH981      0.0570
      9  N2        32.1410   20.6610   83.8520 N.pl3 981  INH981     -0.3440
     10  N3        34.0900   22.0060   83.5280 N.3   981  INH981     -0.0820
     11  H5        32.5120   19.7520   83.5410 H     981  INH981      0.1630
     12  H6        34.5240   22.9390   83.5920 H     981  INH981      0.2610
     13  H7        34.6400   21.2050   83.1840 H     981  INH981      0.2610
     14  H8        32.2660   23.8100   84.4880 H     981  INH981      0.1630
@<TRIPOS>BOND
     1    13    10    1
     2    10    12    1
     3    10     2    1
     4    11     9    1
     5     9     2    1
     6     9     8    1
     7     2     1    1
     8     8     7   ar
     9     8     3   ar
    10     1    14    1
    11     1     3    1
    12     7     6   ar
    13     3     4   ar
    14     6     5   ar
    15     4     5   ar
