@<TRIPOS>MOLECULE
./ligand/2v7t_lig.pdb
 46 48 0 0 0
SMALL
GASTEIGER

@<TRIPOS>ATOM
      1  N1        34.2770   13.0060   66.5970 N.4   1759  INH1759     0.2289
      2  C1        34.8400   11.7790   67.2130 C.3   1759  INH1759     0.0793
      3  C2        33.7190   10.8710   67.7160 C.2   1759  INH1759     0.4026
      4  O1        33.8710    9.6520   67.7270 O.co2 1759  INH1759    -0.2400
      5  C3        35.7650   12.1260   68.3720 C.3   1759  INH1759     0.0099
      6  C4        36.6070   10.9900   68.9590 C.3   1759  INH1759    -0.0006
      7  S1        37.7340   10.2580   67.7500 S.3   1759  INH1759    -0.1579
      8  C5        39.0250   11.3800   68.2960 C.3   1759  INH1759     0.0226
      9  O2        32.6500   11.3280   68.1340 O.co2 1759  INH1759    -0.2400
     10  H1        35.0820   13.6350   66.2470 H     1759  INH1759     0.2002
     11  H2        33.6940   13.5420   67.3310 H     1759  INH1759     0.2002
     12  H3        35.4180   11.2390   66.4490 H     1759  INH1759     0.0970
     13  H4        35.1420   12.5290   69.1840 H     1759  INH1759     0.0333
     14  H5        36.4580   12.9040   68.0210 H     1759  INH1759     0.0333
     15  H6        35.9300   10.2060   69.3290 H     1759  INH1759     0.0378
     16  H7        37.2000   11.3880   69.7960 H     1759  INH1759     0.0378
     17  H8        38.6610   11.9010   69.1940 H     1759  INH1759     0.0402
     18  H9        39.1980   12.1110   67.4930 H     1759  INH1759     0.0402
     19  H10       33.6880   12.7520   65.8200 H     1759  INH1759     0.2002
     20  C6        40.3620   10.7390   68.6380 C.3   1759  INH1759     0.0986
     21  O3        40.7720    9.7810   67.6700 O.3   1759  INH1759    -0.3471
     22  C7        41.3540   11.8950   68.5580 C.3   1759  INH1759     0.1121
     23  O4        42.3140   11.7630   69.5760 O.3   1759  INH1759    -0.3865
     24  C8        41.9790   11.7500   67.1830 C.3   1759  INH1759     0.1285
     25  O5        43.3070   12.2440   67.0660 O.3   1759  INH1759    -0.3847
     26  C9        41.8740   10.2660   66.9140 C.3   1759  INH1759     0.1664
     27  N2        41.6290   10.0860   65.4700 N.ar  1759  INH1759    -0.2877
     28  C10       40.5570   10.5390   64.7500 C.ar  1759  INH1759     0.0999
     29  N3        40.7000   10.1670   63.4720 N.ar  1759  INH1759    -0.2346
     30  C11       41.8630    9.4700   63.3620 C.ar  1759  INH1759     0.1287
     31  C12       42.4990    8.8710   62.2860 C.3   1759  INH1759     0.2004
     32  N4        41.9640    8.8900   61.0610 N.3   1759  INH1759    -0.2985
     33  N5        43.6980    8.2310   62.5130 N.2   1759  INH1759    -0.2420
     34  C13       44.2910    8.1830   63.7650 C.2   1759  INH1759     0.1049
     35  N6        43.6410    8.7800   64.8250 N.pl3 1759  INH1759    -0.1840
     36  C14       42.4570    9.4140   64.6160 C.ar  1759  INH1759     0.1528
     37  H11       40.3350   10.2840   69.6390 H     1759  INH1759     0.0632
     38  H12       40.8430   12.8640   68.6540 H     1759  INH1759     0.0647
     39  H13       42.9310   12.4840   69.5250 H     1759  INH1759     0.2100
     40  H14       41.3660   12.2980   66.4520 H     1759  INH1759     0.0665
     41  H15       43.6170   12.1130   66.1770 H     1759  INH1759     0.2101
     42  H16       42.7980    9.7480   67.2100 H     1759  INH1759     0.0866
     43  H17       39.7220   11.1100   65.1520 H     1759  INH1759     0.1030
     44  H18       42.4560    8.4380   60.2770 H     1759  INH1759     0.1209
     45  H19       41.0600    9.3570   60.9010 H     1759  INH1759     0.1209
     46  H20       45.2440    7.6870   63.9080 H     1759  INH1759     0.1015
@<TRIPOS>BOND
     1    44    32    1
     2    45    32    1
     3    32    31    1
     4    31    33    1
     5    31    30    1
     6    33    34    2
     7    30    29   ar
     8    30    36   ar
     9    29    28   ar
    10    34    46    1
    11    34    35    1
    12    36    35    1
    13    36    27   ar
    14    28    43    1
    15    28    27   ar
    16    27    26    1
    17    19     1    1
    18    41    25    1
    19    10     1    1
    20    12     2    1
    21    40    24    1
    22     1     2    1
    23     1    11    1
    24    26    24    1
    25    26    42    1
    26    26    21    1
    27    25    24    1
    28    24    22    1
    29     2     3    1
    30     2     5    1
    31    18     8    1
    32    21    20    1
    33     3     4   ar
    34     3     9   ar
    35     7     8    1
    36     7     6    1
    37    14     5    1
    38     8    20    1
    39     8    17    1
    40     5     6    1
    41     5    13    1
    42    22    20    1
    43    22    38    1
    44    22    23    1
    45    20    37    1
    46     6    15    1
    47     6    16    1
    48    39    23    1
