@<TRIPOS>MOLECULE
/tmp/ewbell/vina_2v7t_2v7t_lig/vina/vina4.pdbqt
 37 39 0 0 0
SMALL
GASTEIGER

@<TRIPOS>ATOM
      1  C6        40.5280   10.7830   68.3180 C.3   1759  INH1759     0.1650
      2  O3        41.3130    9.7020   67.8290 O.3   1759  INH1759    -0.3550
      3  C7        41.4120   12.0260   68.2630 C.3   1759  INH1759     0.1800
      4  C8        42.4910   11.6660   67.2590 C.3   1759  INH1759     0.1980
      5  C9        42.5800   10.1620   67.3750 C.3   1759  INH1759     0.2620
      6  N2        42.8740    9.6220   66.0340 N.3   1759  INH1759    -0.2970
      7  C14       42.0920    9.8080   64.9290 C.3   1759  INH1759     0.1380
      8  C11       42.7230    9.1510   63.8810 C.2   1759  INH1759     0.1070
      9  N6        40.9200   10.4760   64.7600 N.3   1759  INH1759    -0.3370
     10  N3        43.8620    8.5820   64.3600 N.pl3 1759  INH1759    -0.3490
     11  C12       42.1380    9.1640   62.6250 C.2   1759  INH1759     0.6860
     12  C10       43.9550    8.8690   65.6640 C.3   1759  INH1759     0.1870
     13  H3        44.5300    8.0320   63.8190 H     1759  INH1759     0.1660
     14  N4        42.7100    8.5530   61.5830 N.pl3 1759  INH1759    -0.0950
     15  N5        40.9500    9.8450   62.4680 N.pl3 1759  INH1759    -0.3520
     16  H18       42.2550    8.5770   60.6590 H     1759  INH1759     0.2600
     17  H19       43.6050    8.0580   61.7030 H     1759  INH1759     0.2600
     18  C13       40.3200   10.4950   63.5180 C.3   1759  INH1759     0.1790
     19  H5        40.5190    9.8730   61.5440 H     1759  INH1759     0.1620
     20  H         40.5020   10.9430   65.5190 H     1759  INH1759     0.1680
     21  O5        43.7420   12.3140   67.4560 O.3   1759  INH1759    -0.3880
     22  H15       43.7380   13.1530   67.0100 H     1759  INH1759     0.2100
     23  C5        39.3630   11.1220   67.4000 C.3   1759  INH1759     0.1080
     24  S1        37.9040   11.7950   68.2000 S.3   1759  INH1759    -0.1660
     25  C4        36.9440   11.4490   66.7080 C.3   1759  INH1759     0.0760
     26  C3        35.7060   10.5920   66.9850 C.3   1759  INH1759     0.0540
     27  C1        35.9400    9.1510   67.4180 C.3   1759  INH1759     0.2810
     28  N1        37.2640    8.6660   66.9560 N.4   1759  INH1759    -0.0650
     29  H10       37.3690    8.8600   65.9720 H     1759  INH1759     0.2750
     30  H1        37.3350    7.6010   67.1210 H     1759  INH1759     0.2750
     31  H2        38.0440    9.1690   67.5070 H     1759  INH1759     0.2750
     32  C2        34.8240    8.2690   66.8610 C.2   1759  INH1759     0.1710
     33  O1        35.0990    7.2480   66.2360 O.2   1759  INH1759    -0.6480
     34  O2        33.6320    8.5420   67.0340 O.3   1759  INH1759    -0.7750
     35  H         33.3350    8.8350   67.8730 H     1759  INH1759     0.1670
     36  O4        41.9540   12.2750   69.5350 O.3   1759  INH1759    -0.3900
     37  H13       42.5970   11.6060   69.7420 H     1759  INH1759     0.2100
@<TRIPOS>BOND
     1    16    14    1
     2    19    15    1
     3    14    17    1
     4    14    11    1
     5    15    11    1
     6    15    18    1
     7    11     8    2
     8    18     9    1
     9    13    10    1
    10     8    10    1
    11     8     7    1
    12    10    12    1
    13     9     7    1
    14     9    20    1
    15     7     6    1
    16    12     6    1
    17    29    28    1
    18     6     5    1
    19    33    32    2
    20    25    26    1
    21    25    24    1
    22    32    34    1
    23    32    27    1
    24    28    30    1
    25    28    27    1
    26    28    31    1
    27    26    27    1
    28    22    21    1
    29    34    35    1
    30     4     5    1
    31     4    21    1
    32     4     3    1
    33     5     2    1
    34    23    24    1
    35    23     1    1
    36     2     1    1
    37     3     1    1
    38     3    36    1
    39    36    37    1
