@<TRIPOS>MOLECULE
/tmp/ewbell/vina_2v7t_2v7t_lig/vina/vina5.pdbqt
 37 39 0 0 0
SMALL
GASTEIGER

@<TRIPOS>ATOM
      1  C6        39.1810   11.5630   68.4090 C.3   1759  INH1759     0.1650
      2  O3        40.3300   11.7900   67.6020 O.3   1759  INH1759    -0.3550
      3  C7        38.1930   10.7750   67.5550 C.3   1759  INH1759     0.1800
      4  C8        39.0550   10.1570   66.4690 C.3   1759  INH1759     0.1980
      5  C9        40.2030   11.1340   66.3470 C.3   1759  INH1759     0.2620
      6  N2        41.4220   10.3600   66.0430 N.3   1759  INH1759    -0.2970
      7  C14       41.7820    9.9270   64.7980 C.3   1759  INH1759     0.1380
      8  C11       42.9860    9.2510   64.9460 C.2   1759  INH1759     0.1070
      9  N6        41.1750   10.0640   63.5890 N.3   1759  INH1759    -0.3370
     10  N3        43.3340    9.2820   66.2600 N.pl3 1759  INH1759    -0.3490
     11  C12       43.5860    8.6890   63.8300 C.2   1759  INH1759     0.6860
     12  C10       42.3870    9.9560   66.9260 C.3   1759  INH1759     0.1870
     13  H3        44.1700    8.8650   66.6690 H     1759  INH1759     0.1660
     14  N4        44.7490    8.0360   63.9190 N.pl3 1759  INH1759    -0.0950
     15  N5        42.9600    8.8360   62.6110 N.pl3 1759  INH1759    -0.3520
     16  H18       45.1750    7.6260   63.0750 H     1759  INH1759     0.2600
     17  H19       45.2190    7.9420   64.8300 H     1759  INH1759     0.2600
     18  C13       41.7550    9.5050   62.4690 C.3   1759  INH1759     0.1790
     19  H5        43.4010    8.4370   61.7820 H     1759  INH1759     0.1620
     20  H         40.3270   10.5580   63.5140 H     1759  INH1759     0.1680
     21  O5        38.3940    9.9180   65.2340 O.3   1759  INH1759    -0.3880
     22  H15       38.6420   10.5880   64.6060 H     1759  INH1759     0.2100
     23  C5        39.4660   10.6380   69.5840 C.3   1759  INH1759     0.1080
     24  S1        41.1990   10.3010   69.9140 S.3   1759  INH1759    -0.1660
     25  C4        41.5700   12.0540   69.6770 C.3   1759  INH1759     0.0760
     26  C3        41.8690   12.7790   70.9920 C.3   1759  INH1759     0.0540
     27  C1        41.0220   14.0010   71.3210 C.3   1759  INH1759     0.2810
     28  N1        41.8780   15.1730   71.6320 N.4   1759  INH1759    -0.0650
     29  H10       42.7790   15.0550   71.1970 H     1759  INH1759     0.2750
     30  H1        42.0020   15.2540   72.7010 H     1759  INH1759     0.2750
     31  H2        41.4100   16.0700   71.2540 H     1759  INH1759     0.2750
     32  C2        40.1080   13.6780   72.5020 C.2   1759  INH1759     0.1710
     33  O1        39.5300   12.5960   72.5560 O.2   1759  INH1759    -0.6480
     34  O2        39.9370   14.4770   73.4290 O.3   1759  INH1759    -0.7750
     35  H         39.3320   15.1850   73.3320 H     1759  INH1759     0.1670
     36  O4        37.2350   11.6510   67.0150 O.3   1759  INH1759    -0.3900
     37  H13       36.9370   12.2490   67.6900 H     1759  INH1759     0.2100
@<TRIPOS>BOND
     1    19    15    1
     2    18    15    1
     3    18     9    1
     4    15    11    1
     5    16    14    1
     6    20     9    1
     7     9     7    1
     8    11    14    1
     9    11     8    2
    10    14    17    1
    11    22    21    1
    12     7     8    1
    13     7     6    1
    14     8    10    1
    15    21     4    1
    16     6     5    1
    17     6    12    1
    18    10    13    1
    19    10    12    1
    20     5     4    1
    21     5     2    1
    22     4     3    1
    23    36     3    1
    24    36    37    1
    25     3     1    1
    26     2     1    1
    27     1    23    1
    28    23    24    1
    29    25    24    1
    30    25    26    1
    31    26    27    1
    32    29    28    1
    33    31    28    1
    34    27    28    1
    35    27    32    1
    36    28    30    1
    37    32    33    2
    38    32    34    1
    39    35    34    1
