@<TRIPOS>MOLECULE
/tmp/ewbell/vina_2v7t_2v7t_lig/vina/vina2.pdbqt
 37 39 0 0 0
SMALL
GASTEIGER

@<TRIPOS>ATOM
      1  C6        41.4890   12.2730   68.6710 C.3   1759  INH1759     0.1650
      2  O3        40.2730   12.2730   67.9320 O.3   1759  INH1759    -0.3550
      3  C7        41.1230   11.9510   70.1160 C.3   1759  INH1759     0.1800
      4  C8        39.7660   11.2810   70.0130 C.3   1759  INH1759     0.1980
      5  C9        39.1810   11.8840   68.7560 C.3   1759  INH1759     0.2620
      6  N2        38.3770   10.8420   68.0880 N.3   1759  INH1759    -0.2970
      7  C14       37.0180   10.7320   68.1740 C.3   1759  INH1759     0.1380
      8  C11       36.6600    9.6350   67.4010 C.2   1759  INH1759     0.1070
      9  N6        36.0960   11.4740   68.8410 N.3   1759  INH1759    -0.3370
     10  N3        37.7920    9.1020   66.8660 N.pl3 1759  INH1759    -0.3490
     11  C12       35.3240    9.2770   67.3130 C.2   1759  INH1759     0.6860
     12  C10       38.8330    9.8350   67.2810 C.3   1759  INH1759     0.1870
     13  H3        37.8400    8.2870   66.2560 H     1759  INH1759     0.1660
     14  N4        34.9280    8.2350   66.5760 N.pl3 1759  INH1759    -0.0950
     15  N5        34.4010   10.0400   67.9940 N.pl3 1759  INH1759    -0.3520
     16  H18       33.9290    7.9880   66.5260 H     1759  INH1759     0.2600
     17  H19       35.6220    7.6780   66.0560 H     1759  INH1759     0.2600
     18  C13       34.7620   11.1300   68.7700 C.3   1759  INH1759     0.1790
     19  H5        33.4130    9.7930   67.9250 H     1759  INH1759     0.1620
     20  H         36.3790   12.2540   69.3720 H     1759  INH1759     0.1680
     21  O5        38.9250   11.4380   71.1480 O.3   1759  INH1759    -0.3880
     22  H15       38.0200   11.5090   70.8650 H     1759  INH1759     0.2100
     23  C5        42.4170   11.1370   68.2660 C.3   1759  INH1759     0.1080
     24  S1        43.2000   11.2980   66.6590 S.3   1759  INH1759    -0.1660
     25  C4        42.2210    9.9020   66.0580 C.3   1759  INH1759     0.0760
     26  C3        42.0300    9.9220   64.5390 C.3   1759  INH1759     0.0540
     27  C1        42.7730    8.8660   63.7310 C.3   1759  INH1759     0.2810
     28  N1        44.2400    8.9960   63.9100 N.4   1759  INH1759    -0.0650
     29  H10       44.4380    9.7840   64.5050 H     1759  INH1759     0.2750
     30  H1        44.7080    9.1460   62.9480 H     1759  INH1759     0.2750
     31  H2        44.6280    8.0960   64.3630 H     1759  INH1759     0.2750
     32  C2        42.4000    9.0040   62.2560 C.2   1759  INH1759     0.1710
     33  O1        41.3100    9.4740   61.9370 O.2   1759  INH1759    -0.6480
     34  O2        43.1750    8.6680   61.3550 O.3   1759  INH1759    -0.7750
     35  H         43.3400    9.2480   60.6380 H     1759  INH1759     0.1670
     36  O4        41.0550   13.1410   70.8610 O.3   1759  INH1759    -0.3900
     37  H13       41.6280   13.7910   70.4720 H     1759  INH1759     0.2100
@<TRIPOS>BOND
     1    35    34    1
     2    34    32    1
     3    33    32    2
     4    32    27    1
     5    30    28    1
     6    27    28    1
     7    27    26    1
     8    28    31    1
     9    28    29    1
    10    26    25    1
    11    17    14    1
    12    25    24    1
    13    13    10    1
    14    16    14    1
    15    14    11    1
    16    24    23    1
    17    10    12    1
    18    10     8    1
    19    12     6    1
    20    11     8    2
    21    11    15    1
    22     8     7    1
    23    19    15    1
    24     2     1    1
    25     2     5    1
    26    15    18    1
    27     6     7    1
    28     6     5    1
    29     7     9    1
    30    23     1    1
    31     1     3    1
    32     5     4    1
    33    18     9    1
    34     9    20    1
    35     4     3    1
    36     4    21    1
    37     3    36    1
    38    37    36    1
    39    22    21    1
