@<TRIPOS>MOLECULE
/tmp/ewbell/vina_2v7t_2v7t_lig/vina/vina1.pdbqt
 37 39 0 0 0
SMALL
GASTEIGER

@<TRIPOS>ATOM
      1  C6        40.3160   10.9040   68.7670 C.3   1759  INH1759     0.1650
      2  O3        40.7070    9.9140   67.8240 O.3   1759  INH1759    -0.3550
      3  C7        41.3700   12.0050   68.7090 C.3   1759  INH1759     0.1800
      4  C8        42.0320   11.8100   67.3570 C.3   1759  INH1759     0.1980
      5  C9        41.8580   10.3310   67.1010 C.3   1759  INH1759     0.2620
      6  N2        41.6520   10.1460   65.6520 N.3   1759  INH1759    -0.2970
      7  C14       42.5170    9.4970   64.8170 C.3   1759  INH1759     0.1380
      8  C11       41.9520    9.5380   63.5490 C.2   1759  INH1759     0.1070
      9  N6        43.7120    8.8940   65.0540 N.3   1759  INH1759    -0.3370
     10  N3        40.7680   10.2040   63.6320 N.pl3 1759  INH1759    -0.3490
     11  C12       42.6290    8.9570   62.4890 C.2   1759  INH1759     0.6860
     12  C10       40.5850   10.5710   64.9070 C.3   1759  INH1759     0.1870
     13  H3        40.1310   10.3910   62.8580 H     1759  INH1759     0.1660
     14  N4        42.1220    8.9630   61.2510 N.pl3 1759  INH1759    -0.0950
     15  N5        43.8380    8.3490   62.7440 N.pl3 1759  INH1759    -0.3520
     16  H18       42.6450    8.5250   60.4790 H     1759  INH1759     0.2600
     17  H19       41.2100    9.4060   61.0700 H     1759  INH1759     0.2600
     18  C13       44.4030    8.3150   64.0090 C.3   1759  INH1759     0.1790
     19  H5        44.3380    7.9060   61.9720 H     1759  INH1759     0.1620
     20  H         44.0820    8.8700   65.9660 H     1759  INH1759     0.1680
     21  O5        43.3880   12.2320   67.2800 O.3   1759  INH1759    -0.3880
     22  H15       43.4430   13.0280   66.7640 H     1759  INH1759     0.2100
     23  C5        39.0270   11.6100   68.3730 C.3   1759  INH1759     0.1080
     24  S1        37.8620   10.6380   67.4140 S.3   1759  INH1759    -0.1660
     25  C4        36.6960   10.7020   68.7930 C.3   1759  INH1759     0.0760
     26  C3        35.6800   11.8400   68.6580 C.3   1759  INH1759     0.0540
     27  C1        34.8740   11.9040   67.3680 C.3   1759  INH1759     0.2810
     28  N1        34.9130   13.2680   66.7840 N.4   1759  INH1759    -0.0650
     29  H10       35.1850   13.9290   67.4940 H     1759  INH1759     0.2750
     30  H1        33.9350   13.5270   66.4080 H     1759  INH1759     0.2750
     31  H2        35.6280   13.2930   65.9760 H     1759  INH1759     0.2750
     32  C2        33.4330   11.4850   67.6510 C.2   1759  INH1759     0.1710
     33  O1        32.5200   12.2990   67.5350 O.2   1759  INH1759    -0.6480
     34  O2        33.1450   10.3310   67.9860 O.3   1759  INH1759    -0.7750
     35  H         32.2520   10.1010   68.1540 H     1759  INH1759     0.1670
     36  O4        42.2870   11.8360   69.7600 O.3   1759  INH1759    -0.3900
     37  H13       41.8240   11.5660   70.5450 H     1759  INH1759     0.2100
@<TRIPOS>BOND
     1    16    14    1
     2    17    14    1
     3    14    11    1
     4    19    15    1
     5    11    15    1
     6    11     8    2
     7    15    18    1
     8    13    10    1
     9     8    10    1
    10     8     7    1
    11    10    12    1
    12    18     9    1
    13     7     9    1
    14     7     6    1
    15    12     6    1
    16     9    20    1
    17     6     5    1
    18    31    28    1
    19    30    28    1
    20    22    21    1
    21    28    27    1
    22    28    29    1
    23     5     4    1
    24     5     2    1
    25    21     4    1
    26     4     3    1
    27    27    32    1
    28    27    26    1
    29    24    23    1
    30    24    25    1
    31    33    32    2
    32    32    34    1
    33     2     1    1
    34    34    35    1
    35    23     1    1
    36    26    25    1
    37     3     1    1
    38     3    36    1
    39    36    37    1
