@<TRIPOS>MOLECULE
/tmp/ewbell/vina_2v7t_2v7t_lig/vina/vina3.pdbqt
 37 39 0 0 0
SMALL
GASTEIGER

@<TRIPOS>ATOM
      1  C6        30.6670   17.6970   54.8290 C.3   1759  INH1759     0.1650
      2  O3        30.4460   17.2300   56.1540 O.3   1759  INH1759    -0.3550
      3  C7        29.2960   17.7980   54.1660 C.3   1759  INH1759     0.1800
      4  C8        28.3280   17.8680   55.3320 C.3   1759  INH1759     0.1980
      5  C9        29.0560   17.1210   56.4270 C.3   1759  INH1759     0.2620
      6  N2        28.7290   17.7720   57.7110 N.3   1759  INH1759    -0.2970
      7  C14       28.9990   19.0760   58.0150 C.3   1759  INH1759     0.1380
      8  C11       28.5280   19.2880   59.3050 C.2   1759  INH1759     0.1070
      9  N6        29.5990   20.0610   57.2960 N.3   1759  INH1759    -0.3370
     10  N3        27.9870   18.1250   59.7570 N.pl3 1759  INH1759    -0.3490
     11  C12       28.6820   20.5380   59.8830 C.2   1759  INH1759     0.6860
     12  C10       28.1070   17.2060   58.7900 C.3   1759  INH1759     0.1870
     13  H3        27.5640   17.9770   60.6730 H     1759  INH1759     0.1660
     14  N4        28.2370   20.7940   61.1170 N.pl3 1759  INH1759    -0.0950
     15  N5        29.2900   21.5270   59.1420 N.pl3 1759  INH1759    -0.3520
     16  H18       28.3630   21.7320   61.5260 H     1759  INH1759     0.2600
     17  H19       27.7700   20.0550   61.6610 H     1759  INH1759     0.2600
     18  C13       29.7650   21.3100   57.8580 C.3   1759  INH1759     0.1790
     19  H5        29.3950   22.4550   59.5530 H     1759  INH1759     0.1620
     20  H         29.9130   19.8840   56.3800 H     1759  INH1759     0.1680
     21  O5        27.0300   17.3490   55.0740 O.3   1759  INH1759    -0.3880
     22  H15       26.3860   17.8450   55.5680 H     1759  INH1759     0.2100
     23  C5        31.1980   19.1220   54.7910 C.3   1759  INH1759     0.1080
     24  S1        32.4570   19.4580   53.5570 S.3   1759  INH1759    -0.1660
     25  C4        32.9890   17.7320   53.6510 C.3   1759  INH1759     0.0760
     26  C3        34.5070   17.5730   53.5310 C.3   1759  INH1759     0.0540
     27  C1        35.0550   17.1340   52.1790 C.3   1759  INH1759     0.2810
     28  N1        35.4200   15.6960   52.1960 N.4   1759  INH1759    -0.0650
     29  H10       34.6180   15.1480   52.4640 H     1759  INH1759     0.2750
     30  H1        36.2180   15.5350   52.9050 H     1759  INH1759     0.2750
     31  H2        35.7470   15.3960   51.2110 H     1759  INH1759     0.2750
     32  C2        36.2700   17.9900   51.8250 C.2   1759  INH1759     0.1710
     33  O1        36.5330   18.9910   52.4870 O.2   1759  INH1759    -0.6480
     34  O2        37.0200   17.6970   50.8880 O.3   1759  INH1759    -0.7750
     35  H         37.5770   18.3510   50.5130 H     1759  INH1759     0.1670
     36  O4        29.0690   16.6580   53.3770 O.3   1759  INH1759    -0.3900
     37  H13       29.4530   16.7870   52.5170 H     1759  INH1759     0.2100
@<TRIPOS>BOND
     1    35    34    1
     2    34    32    1
     3    31    28    1
     4    32    27    1
     5    32    33    2
     6    27    28    1
     7    27    26    1
     8    28    29    1
     9    28    30    1
    10    37    36    1
    11    36     3    1
    12    26    25    1
    13    24    25    1
    14    24    23    1
    15     3     1    1
    16     3     4    1
    17    23     1    1
    18     1     2    1
    19    21     4    1
    20    21    22    1
    21     4     5    1
    22     2     5    1
    23    20     9    1
    24     5     6    1
    25     9    18    1
    26     9     7    1
    27     6     7    1
    28     6    12    1
    29    18    15    1
    30     7     8    1
    31    12    10    1
    32    15    19    1
    33    15    11    1
    34     8    10    1
    35     8    11    2
    36    10    13    1
    37    11    14    1
    38    14    16    1
    39    14    17    1
