@<TRIPOS>MOLECULE
./ligand/2r5p_lig.pdb
 93 97 0 0 0
SMALL
GASTEIGER

@<TRIPOS>ATOM
      1  C1        32.9530  -17.7250    2.8300 C.ar  203  INH203     -0.0617
      2  C2        24.4970  -15.5160    4.0040 C.ar  203  INH203     -0.0615
      3  C3        24.8650  -14.6250    2.9830 C.ar  203  INH203     -0.0614
      4  C4        32.2940  -18.0880    1.6280 C.ar  203  INH203     -0.0615
      5  C5        33.2690  -16.3760    3.1010 C.ar  203  INH203     -0.0615
      6  C6        27.6260   -3.7530   -0.5110 C.ar  203  INH203     -0.0433
      7  C7        25.4220  -16.3750    4.6140 C.ar  203  INH203     -0.0582
      8  C8        26.2050  -14.5930    2.5660 C.ar  203  INH203     -0.0565
      9  C9        31.9590  -17.0730    0.7120 C.ar  203  INH203     -0.0586
     10  C10       32.9290  -15.3610    2.1760 C.ar  203  INH203     -0.0586
     11  C11       27.2300   -5.0630   -0.1810 C.ar  203  INH203     -0.0545
     12  C12       27.1670   -3.2090   -1.7210 C.ar  203  INH203      0.0276
     13  C13       25.9800   -5.1460   -2.2680 C.ar  203  INH203      0.0320
     14  C14       26.7800  -16.3380    4.1890 C.ar  203  INH203     -0.0398
     15  C15       27.1900  -15.4310    3.1370 C.ar  203  INH203     -0.0215
     16  C16       32.2710  -15.7110    0.9750 C.ar  203  INH203     -0.0466
     17  C17       26.3920   -5.7760   -1.0760 C.ar  203  INH203     -0.0153
     18  C18       30.0200   -9.5050   -2.2950 C.2   203  INH203      0.2630
     19  C19       29.6300  -14.3110    1.0470 C.2   203  INH203      0.2170
     20  C20       28.0110  -17.1060    4.6180 C.3   203  INH203      0.0008
     21  C21       25.8920   -9.6050   -1.1300 C.3   203  INH203      0.0397
     22  C22       26.3900  -10.8170   -1.9150 C.3   203  INH203     -0.0179
     23  C23       27.9290   -8.3930   -1.5440 C.3   203  INH203      0.0512
     24  C24       28.6760  -15.6000    2.8800 C.3   203  INH203      0.0748
     25  C25       28.4980   -9.5290   -2.4010 C.3   203  INH203      0.0697
     26  C26       28.9850  -16.9600    3.4790 C.3   203  INH203      0.0816
     27  C27       32.3650   -8.3490   -4.9030 C.3   203  INH203     -0.0442
     28  C28       32.7860  -10.3210   -3.4480 C.3   203  INH203     -0.0442
     29  C29       32.7520   -7.9740   -2.4800 C.3   203  INH203     -0.0442
     30  C30       31.9030  -14.6030    0.0040 C.3   203  INH203     -0.0165
     31  C31       25.9490   -7.1870   -0.7530 C.3   203  INH203      0.0259
     32  C32       30.0940  -13.3640   -1.2560 C.3   203  INH203     -0.0104
     33  C33       28.3230  -12.0320   -2.6040 C.3   203  INH203     -0.0044
     34  C34       30.3800  -14.5220   -0.2780 C.3   203  INH203      0.0420
     35  C35       28.6030  -13.2040   -1.6400 C.3   203  INH203      0.0956
     36  C36       32.1510   -8.9380   -3.5100 C.3   203  INH203      0.0264
     37  N1        26.3330   -3.8390   -2.6700 N.ar  203  INH203     -0.2629
     38  N2        30.6940   -9.0480   -3.3730 N.am  203  INH203     -0.3059
     39  N3        29.0600  -15.4200    1.5200 N.am  203  INH203     -0.3057
     40  N4        26.4360   -8.3120   -1.5830 N.3   203  INH203     -0.2874
     41  N5        27.8750  -10.8290   -1.8520 N.4   203  INH203      0.2476
     42  O1        30.5500   -9.8940   -1.2470 O.2   203  INH203     -0.2695
     43  O2        29.5680  -13.2300    1.6440 O.2   203  INH203     -0.2755
     44  O3        28.8000  -18.0050    2.5130 O.3   203  INH203     -0.3893
     45  O4        28.2070  -14.3830   -2.3530 O.3   203  INH203     -0.3865
     46  H1        33.2160  -18.4890    3.5460 H     203  INH203      0.0618
     47  H2        23.4680  -15.5400    4.3300 H     203  INH203      0.0618
     48  H3        24.1310  -13.9770    2.5270 H     203  INH203      0.0618
     49  H4        32.0540  -19.1200    1.4200 H     203  INH203      0.0618
     50  H5        33.7730  -16.1170    4.0200 H     203  INH203      0.0618
     51  H6        28.2640   -3.1830    0.1480 H     203  INH203      0.0633
     52  H7        25.1090  -17.0540    5.3940 H     203  INH203      0.0620
     53  H8        26.4930  -13.9060    1.7840 H     203  INH203      0.0621
     54  H9        31.4560  -17.3340   -0.2070 H     203  INH203      0.0620
     55  H10       33.1700  -14.3290    2.3850 H     203  INH203      0.0620
     56  H11       27.5600   -5.5190    0.7410 H     203  INH203      0.0622
     57  H12       27.4850   -2.2030   -1.9500 H     203  INH203      0.0829
     58  H13       25.3400   -5.7110   -2.9300 H     203  INH203      0.0833
     59  H14       27.7710  -18.1650    4.7960 H     203  INH203      0.0339
     60  H15       28.4250  -16.7210    5.5620 H     203  INH203      0.0339
     61  H16       24.7980   -9.5640   -1.2350 H     203  INH203      0.0479
     62  H17       26.2310   -9.7420   -0.0930 H     203  INH203      0.0479
     63  H18       26.0590  -10.7480   -2.9620 H     203  INH203      0.0827
     64  H19       25.9830  -11.7430   -1.4830 H     203  INH203      0.0827
     65  H20       28.2370   -8.5620   -0.5020 H     203  INH203      0.0487
     66  H21       28.3190   -7.4490   -1.9510 H     203  INH203      0.0487
     67  H22       29.2830  -14.8110    3.3480 H     203  INH203      0.0574
     68  H23       28.2570   -9.4360   -3.4700 H     203  INH203      0.0963
     69  H24       30.0310  -17.0360    3.8120 H     203  INH203      0.0618
     70  H25       32.4160   -7.2520   -4.8340 H     203  INH203      0.0250
     71  H26       33.3060   -8.7340   -5.3230 H     203  INH203      0.0250
     72  H27       31.5270   -8.6360   -5.5550 H     203  INH203      0.0250
     73  H28       32.9390  -10.7010   -4.4690 H     203  INH203      0.0250
     74  H29       33.7550  -10.2570   -2.9320 H     203  INH203      0.0250
     75  H30       32.1220  -11.0050   -2.8980 H     203  INH203      0.0250
     76  H31       32.8960   -8.5000   -1.5250 H     203  INH203      0.0250
     77  H32       33.7220   -7.6060   -2.8450 H     203  INH203      0.0250
     78  H33       32.0690   -7.1250   -2.3310 H     203  INH203      0.0250
     79  H34       32.4210  -14.7920   -0.9480 H     203  INH203      0.0320
     80  H35       32.2050  -13.6490    0.4620 H     203  INH203      0.0320
     81  H36       24.8520   -7.1930   -0.8390 H     203  INH203      0.0476
     82  H37       26.3850   -7.3810    0.2380 H     203  INH203      0.0476
     83  H38       30.6610  -13.5540   -2.1790 H     203  INH203      0.0299
     84  H39       30.3900  -12.4370   -0.7440 H     203  INH203      0.0299
     85  H40       27.5340  -12.3290   -3.3110 H     203  INH203      0.0840
     86  H41       29.2500  -11.7880   -3.1440 H     203  INH203      0.0840
     87  H42       30.0340  -15.4600   -0.7380 H     203  INH203      0.0398
     88  H43       28.0590  -13.0250   -0.7010 H     203  INH203      0.0647
     89  H44       30.1450   -8.7550   -4.1560 H     203  INH203      0.1494
     90  H45       28.8920  -16.1710    0.8810 H     203  INH203      0.1494
     91  H46       28.1840  -10.8730   -0.9020 H     203  INH203      0.2043
     92  H47       28.9990  -18.8440    2.9120 H     203  INH203      0.2099
     93  H48       27.2930  -14.3110   -2.6020 H     203  INH203      0.2100
@<TRIPOS>BOND
     1     1     4   ar
     2     1    46    1
     3     1     5   ar
     4     2     3   ar
     5     2    47    1
     6     2     7   ar
     7     3     8   ar
     8     3    48    1
     9     4     9   ar
    10     4    49    1
    11     5    50    1
    12     5    10   ar
    13     6    11   ar
    14     6    51    1
    15     6    12   ar
    16     7    52    1
    17     7    14   ar
    18     8    15   ar
    19     8    53    1
    20     9    16   ar
    21     9    54    1
    22    10    16   ar
    23    10    55    1
    24    11    17   ar
    25    11    56    1
    26    12    57    1
    27    12    37   ar
    28    13    17   ar
    29    13    37   ar
    30    13    58    1
    31    14    15   ar
    32    14    20    1
    33    15    24    1
    34    16    30    1
    35    17    31    1
    36    18    38   am
    37    18    42    2
    38    18    25    1
    39    19    34    1
    40    19    43    2
    41    19    39   am
    42    20    60    1
    43    20    59    1
    44    20    26    1
    45    21    40    1
    46    21    62    1
    47    21    61    1
    48    21    22    1
    49    22    64    1
    50    22    63    1
    51    22    41    1
    52    23    25    1
    53    23    66    1
    54    23    65    1
    55    23    40    1
    56    24    39    1
    57    24    67    1
    58    24    26    1
    59    25    68    1
    60    25    41    1
    61    26    69    1
    62    26    44    1
    63    27    72    1
    64    27    71    1
    65    27    70    1
    66    27    36    1
    67    28    36    1
    68    28    75    1
    69    28    74    1
    70    28    73    1
    71    29    36    1
    72    29    78    1
    73    29    77    1
    74    29    76    1
    75    30    34    1
    76    30    80    1
    77    30    79    1
    78    31    40    1
    79    31    82    1
    80    31    81    1
    81    32    35    1
    82    32    84    1
    83    32    83    1
    84    32    34    1
    85    33    41    1
    86    33    86    1
    87    33    85    1
    88    33    35    1
    89    34    87    1
    90    35    88    1
    91    35    45    1
    92    36    38    1
    93    38    89    1
    94    39    90    1
    95    41    91    1
    96    44    92    1
    97    45    93    1
