@<TRIPOS>MOLECULE
/tmp/ewbell/vina_2r5p_2r5p_lig/vina/vina3.pdbqt
 51 55 0 0 0
SMALL
GASTEIGER

@<TRIPOS>ATOM
      1  C35       28.7880  -11.0280   -1.1050 C.3   203  INH203      0.1450
      2  C32       27.7060  -11.2990   -0.0320 C.3   203  INH203      0.0470
      3  C34       28.1030  -12.3510    1.0230 C.3   203  INH203      0.0840
      4  C19       29.6200  -12.5980    0.9990 C.2   203  INH203      0.2220
      5  O2        30.4680  -11.7280    1.2270 O.2   203  INH203     -0.2730
      6  N3        29.9510  -13.8500    0.6820 N.am  203  INH203     -0.3500
      7  H45       29.2130  -14.5020    0.5100 H     203  INH203      0.1630
      8  C24       31.2940  -14.3160    0.5720 C.3   203  INH203      0.1470
      9  C15       31.6220  -15.4920    1.4700 C.ar  203  INH203     -0.0270
     10  C8        31.1910  -15.8640    2.7640 C.ar  203  INH203      0.0100
     11  C14       32.5740  -16.3550    0.8000 C.ar  203  INH203     -0.0470
     12  C3        31.6510  -17.0310    3.3980 C.ar  203  INH203      0.0010
     13  C2        32.5720  -17.8470    2.7220 C.ar  203  INH203      0.0010
     14  C7        33.0410  -17.5380    1.4380 C.ar  203  INH203      0.0080
     15  C20       32.8640  -15.7330   -0.5490 C.3   203  INH203      0.0730
     16  C26       31.7150  -14.7940   -0.8060 C.3   203  INH203      0.1490
     17  O3        30.6390  -15.4730   -1.4690 O.3   203  INH203     -0.3930
     18  H47       30.9570  -15.8520   -2.2800 H     203  INH203      0.2100
     19  C30       27.3630  -13.6840    0.7370 C.3   203  INH203      0.0520
     20  C16       26.7720  -14.3170    1.9830 C.ar  203  INH203     -0.0570
     21  C9        25.5290  -13.8880    2.5270 C.ar  203  INH203      0.0070
     22  C4        25.0010  -14.4750    3.6910 C.ar  203  INH203      0.0010
     23  C1        25.7360  -15.5120    4.3210 C.ar  203  INH203      0.0000
     24  C5        26.9700  -15.9470    3.7900 C.ar  203  INH203      0.0010
     25  C10       27.4950  -15.3520    2.6190 C.ar  203  INH203      0.0070
     26  C33       28.2260  -10.5540   -2.4620 C.3   203  INH203      0.2670
     27  N5        27.7610   -9.1430   -2.3730 N.4   203  INH203     -0.0520
     28  C22       26.3440   -9.1900   -1.9270 C.3   203  INH203      0.2660
     29  C21       25.8390   -7.7540   -1.8000 C.3   203  INH203      0.3000
     30  N4        25.9650   -6.9470   -3.0270 N.3   203  INH203      0.0960
     31  C23       27.3970   -6.9700   -3.4580 C.3   203  INH203      0.3160
     32  C25       27.9340   -8.3840   -3.7040 C.3   203  INH203      0.3070
     33  H46       28.3170   -8.6300   -1.7190 H     203  INH203      0.2810
     34  C31       25.5010   -5.5560   -2.8230 C.3   203  INH203      0.3120
     35  C17       26.5020   -4.4820   -2.4570 C.2   203  INH203     -0.0150
     36  C11       26.8140   -4.2230   -1.0970 C.2   203  INH203      0.0110
     37  C6        27.7520   -3.2190   -0.7890 C.2   203  INH203      0.0180
     38  C12       28.3370   -2.5130   -1.8530 C.3   203  INH203      0.0870
     39  N1        28.0880   -2.6980   -3.2300 N.pl3 203  INH203     -0.3750
     40  C13       27.1390   -3.7200   -3.4570 C.2   203  INH203      0.0960
     41  H1        28.5370   -2.1590   -3.9700 H     203  INH203      0.1640
     42  C18       29.3910   -8.2830   -4.1490 C.2   203  INH203      0.2510
     43  N2        30.3230   -8.2910   -3.1710 N.am  203  INH203     -0.3510
     44  H44       29.9890   -8.3600   -2.2310 H     203  INH203      0.1630
     45  O1        29.6390   -8.2040   -5.3580 O.2   203  INH203     -0.2710
     46  C36       31.7780   -8.2100   -3.3510 C.3   203  INH203      0.0220
     47  C27       32.3440   -8.2220   -1.9320 C.3   203  INH203      0.0370
     48  C28       32.1460   -6.8950   -4.0260 C.3   203  INH203      0.0370
     49  C29       32.3310   -9.4260   -4.1030 C.3   203  INH203      0.0370
     50  O4        29.6070   -9.9490   -0.6360 O.3   203  INH203     -0.3940
     51  H48       30.1420  -10.2490    0.0890 H     203  INH203      0.2100
@<TRIPOS>BOND
     1    45    42    2
     2    42    32    1
     3    42    43   am
     4    49    46    1
     5    48    46    1
     6    41    39    1
     7    32    31    1
     8    32    27    1
     9    31    30    1
    10    40    39    1
    11    40    35    2
    12    46    43    1
    13    46    47    1
    14    39    38    1
    15    43    44    1
    16    30    34    1
    17    30    29    1
    18    34    35    1
    19    26    27    1
    20    26     1    1
    21    35    36    1
    22    27    28    1
    23    27    33    1
    24    18    17    1
    25    28    29    1
    26    38    37    1
    27    17    16    1
    28     1    50    1
    29     1     2    1
    30    36    37    2
    31    16    15    1
    32    16     8    1
    33    50    51    1
    34    15    11    1
    35     2     3    1
    36     7     6    1
    37     8     6    1
    38     8     9    1
    39     6     4   am
    40    19     3    1
    41    19    20    1
    42    11    14   ar
    43    11     9   ar
    44     4     3    1
    45     4     5    2
    46    14    13   ar
    47     9    10   ar
    48    20    21   ar
    49    20    25   ar
    50    21    22   ar
    51    25    24   ar
    52    13    12   ar
    53    10    12   ar
    54    22    23   ar
    55    24    23   ar
