@<TRIPOS>MOLECULE
/tmp/ewbell/vina_2r5p_2r5p_lig/vina/vina5.pdbqt
 51 55 0 0 0
SMALL
GASTEIGER

@<TRIPOS>ATOM
      1  C35       27.6370  -10.4840   -0.8640 C.3   203  INH203      0.1450
      2  C32       27.9890  -11.3130    0.3950 C.3   203  INH203      0.0470
      3  C34       28.7140  -12.6420    0.1000 C.3   203  INH203      0.0840
      4  C19       27.7830  -13.8380    0.3530 C.2   203  INH203      0.2220
      5  O2        27.5430  -14.7190   -0.4800 O.2   203  INH203     -0.2730
      6  N3        27.2250  -13.8320    1.5640 N.am  203  INH203     -0.3500
      7  H45       27.4630  -13.0880    2.1880 H     203  INH203      0.1630
      8  C24       26.3070  -14.8210    2.0230 C.3   203  INH203      0.1470
      9  C15       26.8860  -15.7860    3.0400 C.ar  203  INH203     -0.0270
     10  C8        28.1730  -16.3460    3.2100 C.ar  203  INH203      0.0100
     11  C14       25.8540  -16.1620    3.9850 C.ar  203  INH203     -0.0470
     12  C3        28.4680  -17.2360    4.2560 C.ar  203  INH203      0.0010
     13  C2        27.4470  -17.5810    5.1560 C.ar  203  INH203      0.0010
     14  C7        26.1490  -17.0630    5.0460 C.ar  203  INH203      0.0080
     15  C20       24.5930  -15.4320    3.5780 C.3   203  INH203      0.0730
     16  C26       25.0570  -14.2960    2.7060 C.3   203  INH203      0.1490
     17  O3        25.3490  -13.1340    3.4950 O.3   203  INH203     -0.3930
     18  H47       26.1580  -12.7400    3.1910 H     203  INH203      0.2100
     19  C30       29.9650  -12.7670    1.0090 C.3   203  INH203      0.0520
     20  C16       30.7580  -14.0370    0.7620 C.ar  203  INH203     -0.0570
     21  C9        31.1030  -14.9240    1.8200 C.ar  203  INH203      0.0070
     22  C4        31.8510  -16.0910    1.5790 C.ar  203  INH203      0.0010
     23  C1        32.2600  -16.3710    0.2490 C.ar  203  INH203      0.0000
     24  C5        31.9230  -15.4990   -0.8080 C.ar  203  INH203      0.0010
     25  C10       31.1710  -14.3270   -0.5580 C.ar  203  INH203      0.0070
     26  C33       28.7290   -9.4760   -1.2790 C.3   203  INH203      0.2670
     27  N5        28.1260   -8.1580   -1.6160 N.4   203  INH203     -0.0520
     28  C22       26.8250   -8.0900   -0.9000 C.3   203  INH203      0.2660
     29  C21       26.1870   -6.7360   -1.2040 C.3   203  INH203      0.3000
     30  N4        25.9990   -6.4520   -2.6380 N.3   203  INH203      0.0960
     31  C23       27.3240   -6.5780   -3.3180 C.3   203  INH203      0.3160
     32  C25       27.9710   -7.9560   -3.1370 C.3   203  INH203      0.3070
     33  H46       28.7250   -7.4120   -1.3250 H     203  INH203      0.2810
     34  C31       25.4190   -5.1090   -2.8630 C.3   203  INH203      0.3120
     35  C17       26.2490   -3.8780   -2.5650 C.2   203  INH203     -0.0150
     36  C11       26.3420   -3.3780   -1.2410 C.2   203  INH203      0.0110
     37  C6        27.1240   -2.2330   -0.9950 C.2   203  INH203      0.0180
     38  C12       27.7800   -1.6350   -2.0840 C.3   203  INH203      0.0870
     39  N1        27.7440   -2.0590   -3.4300 N.pl3 203  INH203     -0.3750
     40  C13       26.9410   -3.2090   -3.5940 C.2   203  INH203      0.0960
     41  H1        28.2370   -1.5910   -4.1900 H     203  INH203      0.1640
     42  C18       29.3030   -7.9720   -3.8810 C.2   203  INH203      0.2510
     43  N2        30.4180   -7.8620   -3.1260 N.am  203  INH203     -0.3510
     44  H44       30.2860   -7.7750   -2.1380 H     203  INH203      0.1630
     45  O1        29.2960   -8.0870   -5.1120 O.2   203  INH203     -0.2710
     46  C36       31.8040   -7.8570   -3.6100 C.3   203  INH203      0.0220
     47  C27       31.9700   -9.1970   -4.3230 C.3   203  INH203      0.0370
     48  C28       32.7670   -7.7940   -2.4310 C.3   203  INH203      0.0370
     49  C29       32.0510   -6.7350   -4.6260 C.3   203  INH203      0.0370
     50  O4        27.5220  -11.3930   -1.9670 O.3   203  INH203     -0.3940
     51  H48       26.8320  -11.0980   -2.5500 H     203  INH203      0.2100
@<TRIPOS>BOND
     1    45    42    2
     2    49    46    1
     3    47    46    1
     4    41    39    1
     5    42    32    1
     6    42    43   am
     7    46    43    1
     8    46    48    1
     9    40    39    1
    10    40    35    2
    11    39    38    1
    12    31    32    1
    13    31    30    1
    14    32    27    1
    15    43    44    1
    16    34    30    1
    17    34    35    1
    18    30    29    1
    19    35    36    1
    20    51    50    1
    21    38    37    1
    22    50     1    1
    23    27    33    1
    24    27    26    1
    25    27    28    1
    26    26     1    1
    27    36    37    2
    28    29    28    1
    29     1     2    1
    30    24    25   ar
    31    24    23   ar
    32    25    20   ar
    33     5     4    2
    34     3     4    1
    35     3     2    1
    36     3    19    1
    37    23    22   ar
    38     4     6   am
    39    20    19    1
    40    20    21   ar
    41     6     8    1
    42     6     7    1
    43    22    21   ar
    44     8    16    1
    45     8     9    1
    46    16    17    1
    47    16    15    1
    48     9    10   ar
    49     9    11   ar
    50    18    17    1
    51    10    12   ar
    52    15    11    1
    53    11    14   ar
    54    12    13   ar
    55    14    13   ar
