@<TRIPOS>MOLECULE
/tmp/ewbell/vina_2r5p_2r5p_lig/vina/vina2.pdbqt
 51 55 0 0 0
SMALL
GASTEIGER

@<TRIPOS>ATOM
      1  C35       27.1170   -9.2500   -0.9730 C.3   203  INH203      0.1450
      2  C32       27.6670  -10.6470   -1.3470 C.3   203  INH203      0.0470
      3  C34       29.1740  -10.8340   -1.0720 C.3   203  INH203      0.0840
      4  C19       29.4000  -11.4640    0.3110 C.2   203  INH203      0.2220
      5  O2        30.1130  -10.9670    1.1910 O.2   203  INH203     -0.2730
      6  N3        28.7680  -12.6260    0.4780 N.am  203  INH203     -0.3500
      7  H45       28.2080  -12.9680   -0.2760 H     203  INH203      0.1630
      8  C24       28.8430  -13.4100    1.6650 C.3   203  INH203      0.1470
      9  C15       27.5230  -14.0210    2.0950 C.ar  203  INH203     -0.0270
     10  C8        26.1850  -13.5740    2.0130 C.ar  203  INH203      0.0100
     11  C14       27.7690  -15.3140    2.7010 C.ar  203  INH203     -0.0470
     12  C3        25.1110  -14.3420    2.4920 C.ar  203  INH203      0.0010
     13  C2        25.3800  -15.5910    3.0740 C.ar  203  INH203      0.0010
     14  C7        26.6830  -16.0960    3.1860 C.ar  203  INH203      0.0080
     15  C20       29.2640  -15.5450    2.6630 C.3   203  INH203      0.0730
     16  C26       29.7830  -14.6010    1.6100 C.3   203  INH203      0.1490
     17  O3        29.7610  -15.2180    0.3150 O.3   203  INH203     -0.3930
     18  H47       29.6940  -16.1600    0.4160 H     203  INH203      0.2100
     19  C30       29.8890   -9.4590   -1.1310 C.3   203  INH203      0.0520
     20  C16       31.1550   -9.4810   -1.9690 C.ar  203  INH203     -0.0570
     21  C9        32.1840   -8.5130   -1.7980 C.ar  203  INH203      0.0070
     22  C4        33.3460   -8.5370   -2.5920 C.ar  203  INH203      0.0010
     23  C1        33.4740   -9.5520   -3.5750 C.ar  203  INH203      0.0000
     24  C5        32.4600  -10.5170   -3.7520 C.ar  203  INH203      0.0010
     25  C10       31.2940  -10.4860   -2.9520 C.ar  203  INH203      0.0070
     26  C33       27.0280   -8.2690   -2.1610 C.3   203  INH203      0.2670
     27  N5        27.4030   -6.8930   -1.7360 N.4   203  INH203     -0.0520
     28  C22       26.5830   -6.5810   -0.5360 C.3   203  INH203      0.2660
     29  C21       26.9590   -5.1810   -0.0560 C.3   203  INH203      0.3000
     30  N4        26.8100   -4.1210   -1.0700 N.3   203  INH203      0.0960
     31  C23       27.6160   -4.5050   -2.2700 C.3   203  INH203      0.3160
     32  C25       27.2130   -5.8590   -2.8640 C.3   203  INH203      0.3070
     33  H46       28.3770   -6.8460   -1.5160 H     203  INH203      0.2810
     34  C31       27.2340   -2.8000   -0.5540 C.3   203  INH203      0.3120
     35  C17       26.7340   -2.3320    0.7960 C.2   203  INH203     -0.0150
     36  C11       27.4660   -2.6250    1.9750 C.2   203  INH203      0.0110
     37  C6        26.9760   -2.1730    3.2150 C.2   203  INH203      0.0180
     38  C12       25.7740   -1.4470    3.2250 C.2   203  INH203      0.0870
     39  N1        24.9790   -1.1100    2.1090 N.pl3 203  INH203     -0.3750
     40  C13       25.5360   -1.5970    0.9050 C.3   203  INH203      0.0960
     41  H1        24.1100   -0.5800    2.1640 H     203  INH203      0.1640
     42  C18       28.0870   -6.1370   -4.0840 C.2   203  INH203      0.2510
     43  N2        29.4130   -5.9180   -3.9390 N.am  203  INH203     -0.3510
     44  H44       29.7190   -5.5880   -3.0470 H     203  INH203      0.1630
     45  O1        27.5500   -6.5450   -5.1200 O.2   203  INH203     -0.2710
     46  C36       30.4470   -6.1170   -4.9620 C.3   203  INH203      0.0220
     47  C27       31.7640   -5.8440   -4.2370 C.3   203  INH203      0.0370
     48  C28       30.2730   -5.1010   -6.0830 C.3   203  INH203      0.0370
     49  C29       30.4700   -7.5590   -5.4800 C.3   203  INH203      0.0370
     50  O4        25.7680   -9.4190   -0.5200 O.3   203  INH203     -0.3940
     51  H48       25.3210  -10.0430   -1.0790 H     203  INH203      0.2100
@<TRIPOS>BOND
     1    48    46    1
     2    49    46    1
     3    45    42    2
     4    46    47    1
     5    46    43    1
     6    42    43   am
     7    42    32    1
     8    43    44    1
     9    24    23   ar
    10    24    25   ar
    11    23    22   ar
    12    25    20   ar
    13    32    31    1
    14    32    27    1
    15    22    21   ar
    16    31    30    1
    17    26    27    1
    18    26     1    1
    19    20    21   ar
    20    20    19    1
    21    27    33    1
    22    27    28    1
    23     2     3    1
    24     2     1    1
    25    19     3    1
    26    51    50    1
    27     3     4    1
    28    30    34    1
    29    30    29    1
    30     1    50    1
    31    34    35    1
    32    28    29    1
    33     7     6    1
    34     4     6   am
    35     4     5    2
    36    17    18    1
    37    17    16    1
    38     6     8    1
    39    35    40    1
    40    35    36    2
    41    40    39    1
    42    16     8    1
    43    16    15    1
    44     8     9    1
    45    36    37    1
    46    10     9   ar
    47    10    12   ar
    48     9    11   ar
    49    39    41    1
    50    39    38    1
    51    12    13   ar
    52    15    11    1
    53    11    14   ar
    54    13    14   ar
    55    37    38    2
