@<TRIPOS>MOLECULE
/tmp/ewbell/vina_2r5p_2r5p_lig/vina/vina1.pdbqt
 51 55 0 0 0
SMALL
GASTEIGER

@<TRIPOS>ATOM
      1  C35       28.6610  -12.8400   -1.6050 C.3   203  INH203      0.1450
      2  C32       30.1160  -12.9340   -1.0850 C.3   203  INH203      0.0470
      3  C34       30.4310  -14.2280   -0.3050 C.3   203  INH203      0.0840
      4  C19       29.8240  -14.1730    1.1050 C.2   203  INH203      0.2220
      5  O2        29.8100  -13.1610    1.8160 O.2   203  INH203     -0.2730
      6  N3        29.3220  -15.3380    1.5160 N.am  203  INH203     -0.3500
      7  H45       29.3670  -16.1160    0.8890 H     203  INH203      0.1630
      8  C24       28.7280  -15.5430    2.7950 C.3   203  INH203      0.1470
      9  C15       27.2430  -15.2420    2.8490 C.ar  203  INH203     -0.0270
     10  C8        26.4310  -14.2870    2.1960 C.ar  203  INH203      0.0100
     11  C14       26.6030  -16.1540    3.7760 C.ar  203  INH203     -0.0470
     12  C3        25.0460  -14.2080    2.4180 C.ar  203  INH203      0.0010
     13  C2        24.4550  -15.1050    3.3220 C.ar  203  INH203      0.0010
     14  C7        25.2000  -16.0770    4.0030 C.ar  203  INH203      0.0080
     15  C20       27.6850  -17.0570    4.3280 C.3   203  INH203      0.0730
     16  C26       28.8240  -16.9530    3.3480 C.3   203  INH203      0.1490
     17  O3        28.6900  -17.9290    2.3050 O.3   203  INH203     -0.3930
     18  H47       27.7710  -18.0330    2.0860 H     203  INH203      0.2100
     19  C30       31.9680  -14.4090   -0.1940 C.3   203  INH203      0.0520
     20  C16       32.3710  -15.4980    0.7830 C.ar  203  INH203     -0.0570
     21  C9        32.1630  -16.8760    0.4980 C.ar  203  INH203      0.0070
     22  C4        32.5280  -17.8740    1.4200 C.ar  203  INH203      0.0010
     23  C1        33.1120  -17.4790    2.6510 C.ar  203  INH203      0.0000
     24  C5        33.3240  -16.1140    2.9440 C.ar  203  INH203      0.0010
     25  C10       32.9540  -15.1160    2.0120 C.ar  203  INH203      0.0070
     26  C33       28.4530  -11.7800   -2.7070 C.3   203  INH203      0.2670
     27  N5        27.9160  -10.5190   -2.1290 N.4   203  INH203     -0.0520
     28  C22       26.4470  -10.5400   -2.3530 C.3   203  INH203      0.2660
     29  C21       25.8570   -9.2670   -1.7490 C.3   203  INH203      0.3000
     30  N4        26.4370   -8.0140   -2.2640 N.3   203  INH203      0.0960
     31  C23       27.9170   -8.0630   -2.0560 C.3   203  INH203      0.3160
     32  C25       28.5860   -9.2660   -2.7310 C.3   203  INH203      0.3070
     33  H46       28.1200  -10.4650   -1.1520 H     203  INH203      0.2810
     34  C31       25.8540   -6.8240   -1.6050 C.3   203  INH203      0.3120
     35  C17       26.5370   -5.4810   -1.7500 C.2   203  INH203     -0.0150
     36  C11       26.9340   -4.7480   -0.6020 C.2   203  INH203      0.0110
     37  C6        27.5700   -3.5040   -0.7700 C.2   203  INH203      0.0180
     38  C12       27.7820   -3.0420   -2.0790 C.2   203  INH203      0.0870
     39  N1        27.4220   -3.6960   -3.2760 N.pl3 203  INH203     -0.3750
     40  C13       26.7910   -4.9350   -3.0250 C.3   203  INH203      0.0960
     41  H1        27.5960   -3.3220   -4.2080 H     203  INH203      0.1640
     42  C18       30.0870   -9.2040   -2.4640 C.2   203  INH203      0.2510
     43  N2        30.8720   -8.8510   -3.5060 N.am  203  INH203     -0.3510
     44  H44       30.4100   -8.6600   -4.3730 H     203  INH203      0.1630
     45  O1        30.5010   -9.4710   -1.3300 O.2   203  INH203     -0.2710
     46  C36       32.3330   -8.7190   -3.4930 C.3   203  INH203      0.0220
     47  C27       32.6770   -8.0880   -4.8410 C.3   203  INH203      0.0370
     48  C28       32.9790  -10.0960   -3.4050 C.3   203  INH203      0.0370
     49  C29       32.8140   -7.7780   -2.3820 C.3   203  INH203      0.0370
     50  O4        28.3340  -14.0930   -2.2190 O.3   203  INH203     -0.3940
     51  H48       29.0410  -14.7120   -2.0720 H     203  INH203      0.2100
@<TRIPOS>BOND
     1    47    46    1
     2    44    43    1
     3    41    39    1
     4    43    46    1
     5    43    42   am
     6    46    48    1
     7    46    49    1
     8    39    40    1
     9    39    38    1
    10    40    35    1
    11    32    42    1
    12    32    27    1
    13    32    31    1
    14    26    27    1
    15    26     1    1
    16    42    45    2
    17    28    27    1
    18    28    29    1
    19    30    31    1
    20    30    29    1
    21    30    34    1
    22    50    51    1
    23    50     1    1
    24    27    33    1
    25    38    37    2
    26    35    34    1
    27    35    36    2
    28     1     2    1
    29     2     3    1
    30    37    36    1
    31     3    19    1
    32     3     4    1
    33    19    20    1
    34    21    20   ar
    35    21    22   ar
    36    20    25   ar
    37     7     6    1
    38     4     6   am
    39     4     5    2
    40    22    23   ar
    41     6     8    1
    42    25    24   ar
    43    18    17    1
    44    10    12   ar
    45    10     9   ar
    46    17    16    1
    47    12    13   ar
    48    23    24   ar
    49     8     9    1
    50     8    16    1
    51     9    11   ar
    52    13    14   ar
    53    16    15    1
    54    11    14   ar
    55    11    15    1
