@<TRIPOS>MOLECULE
/tmp/ewbell/vina_2r5p_2r5p_lig/vina/vina4.pdbqt
 51 55 0 0 0
SMALL
GASTEIGER

@<TRIPOS>ATOM
      1  C35       26.9180   -9.6320   -1.2950 C.3   203  INH203      0.1450
      2  C32       28.0330  -10.2300   -0.4040 C.3   203  INH203      0.0470
      3  C34       29.1370  -10.9760   -1.1800 C.3   203  INH203      0.0840
      4  C19       28.9910  -12.4960   -1.0060 C.2   203  INH203      0.2220
      5  O2        28.2270  -13.2010   -1.6760 O.2   203  INH203     -0.2730
      6  N3        29.7560  -12.9980   -0.0360 N.am  203  INH203     -0.3500
      7  H45       30.3500  -12.3700    0.4660 H     203  INH203      0.1630
      8  C24       29.7760  -14.3750    0.3300 C.3   203  INH203      0.1470
      9  C15       31.1190  -14.8660    0.8380 C.ar  203  INH203     -0.0270
     10  C8        32.4520  -14.5360    0.5050 C.ar  203  INH203      0.0100
     11  C14       30.9050  -15.8700    1.8610 C.ar  203  INH203     -0.0470
     12  C3        33.5510  -15.1440    1.1350 C.ar  203  INH203      0.0010
     13  C2        33.3120  -16.1130    2.1230 C.ar  203  INH203      0.0010
     14  C7        32.0160  -16.4870    2.5020 C.ar  203  INH203      0.0080
     15  C20       29.4080  -16.0310    2.0190 C.3   203  INH203      0.0730
     16  C26       28.8120  -14.7800    1.4300 C.3   203  INH203      0.1490
     17  O3        28.7000  -13.7510    2.4240 O.3   203  INH203     -0.3930
     18  H47       28.0440  -14.0010    3.0650 H     203  INH203      0.2100
     19  C30       30.5300  -10.5330   -0.6610 C.3   203  INH203      0.0520
     20  C16       31.4530  -10.0530   -1.7670 C.ar  203  INH203     -0.0570
     21  C9        31.7430  -10.8560   -2.9040 C.ar  203  INH203      0.0070
     22  C4        32.6120  -10.4040   -3.9140 C.ar  203  INH203      0.0010
     23  C1        33.2010   -9.1210   -3.7770 C.ar  203  INH203      0.0000
     24  C5        32.9200   -8.3150   -2.6520 C.ar  203  INH203      0.0010
     25  C10       32.0460   -8.7770   -1.6410 C.ar  203  INH203      0.0070
     26  C33       27.4370   -8.7200   -2.4270 C.3   203  INH203      0.2670
     27  N5        27.5500   -7.3120   -1.9570 N.4   203  INH203     -0.0520
     28  C22       26.6680   -7.1900   -0.7670 C.3   203  INH203      0.2660
     29  C21       26.7770   -5.7600   -0.2400 C.3   203  INH203      0.3000
     30  N4        26.4560   -4.7140   -1.2280 N.3   203  INH203      0.0960
     31  C23       27.3370   -4.9100   -2.4210 C.3   203  INH203      0.3160
     32  C25       27.1940   -6.2950   -3.0600 C.3   203  INH203      0.3070
     33  H46       28.4950   -7.0980   -1.7140 H     203  INH203      0.2810
     34  C31       26.6260   -3.3550   -0.6680 C.3   203  INH203      0.3120
     35  C17       25.4400   -2.4150   -0.6180 C.2   203  INH203     -0.0150
     36  C11       24.2980   -2.6550   -1.4230 C.2   203  INH203      0.0110
     37  C6        23.2100   -1.7640   -1.3520 C.2   203  INH203      0.0180
     38  C12       23.3100   -0.6680   -0.4790 C.2   203  INH203      0.0870
     39  N1        24.4020   -0.3480    0.3560 N.pl3 203  INH203     -0.3750
     40  C13       25.4500   -1.2860    0.2280 C.3   203  INH203      0.0960
     41  H1        24.4310    0.4620    0.9750 H     203  INH203      0.1640
     42  C18       28.1240   -6.3740   -4.2680 C.2   203  INH203      0.2510
     43  N2        29.3900   -5.9410   -4.0840 N.am  203  INH203     -0.3510
     44  H44       29.6220   -5.5990   -3.1740 H     203  INH203      0.1630
     45  O1        27.6810   -6.8260   -5.3310 O.2   203  INH203     -0.2710
     46  C36       30.4610   -5.9230   -5.0890 C.3   203  INH203      0.0220
     47  C27       31.7140   -5.5230   -4.3110 C.3   203  INH203      0.0370
     48  C28       30.1670   -4.8630   -6.1430 C.3   203  INH203      0.0370
     49  C29       30.6940   -7.3080   -5.7030 C.3   203  INH203      0.0370
     50  O4        26.2590  -10.7190   -1.9580 O.3   203  INH203     -0.3940
     51  H48       25.3190  -10.6320   -1.8520 H     203  INH203      0.2100
@<TRIPOS>BOND
     1    48    46    1
     2    49    46    1
     3    45    42    2
     4    46    47    1
     5    46    43    1
     6    42    43   am
     7    42    32    1
     8    43    44    1
     9    22    23   ar
    10    22    21   ar
    11    23    24   ar
    12    32    31    1
    13    32    27    1
    14    21    20   ar
    15    24    25   ar
    16    26    27    1
    17    26     1    1
    18    31    30    1
    19    50    51    1
    20    50     1    1
    21    27    33    1
    22    27    28    1
    23    20    25   ar
    24    20    19    1
    25     5     4    2
    26    36    37    1
    27    36    35    2
    28    37    38    2
    29     1     2    1
    30    30    34    1
    31    30    29    1
    32     3     4    1
    33     3    19    1
    34     3     2    1
    35     4     6   am
    36    28    29    1
    37    34    35    1
    38    35    40    1
    39    38    39    1
    40     6     8    1
    41     6     7    1
    42    40    39    1
    43     8     9    1
    44     8    16    1
    45    39    41    1
    46    10     9   ar
    47    10    12   ar
    48     9    11   ar
    49    12    13   ar
    50    16    15    1
    51    16    17    1
    52    11    15    1
    53    11    14   ar
    54    13    14   ar
    55    17    18    1
