@<TRIPOS>MOLECULE
./ligand/1v0l_lig.pdb
 37 38 0 0 0
SMALL
GASTEIGER

@<TRIPOS>ATOM
      1  N1        10.7080   17.4190   14.5750 N.4   305  INH305      0.2289
      2  C1        10.4450   17.2940   16.0170 C.3   305  INH305     -0.0046
      3  C2         9.9420   15.8970   16.3650 C.3   305  INH305      0.1210
      4  O1         9.6280   15.8440   17.7490 O.3   305  INH305     -0.3839
      5  C3         8.7160   15.5760   15.5600 C.3   305  INH305      0.0974
      6  O2         8.2270   14.2770   15.9650 O.3   305  INH305     -0.3425
      7  C4         9.1070   15.6140   14.0800 C.3   305  INH305      0.0164
      8  C5         9.5470   17.0150   13.7380 C.3   305  INH305     -0.0311
      9  C6         6.8640   14.0980   15.6960 C.3   305  INH305      0.1879
     10  C7         6.5170   12.6600   15.9770 C.3   305  INH305      0.1341
     11  C8         5.0140   12.4380   15.8900 C.3   305  INH305      0.1137
     12  C9         4.2410   13.5020   16.6610 C.3   305  INH305      0.1069
     13  C10        4.7600   14.8800   16.3140 C.3   305  INH305      0.0792
     14  O3         7.2040   11.8450   15.0400 O.3   305  INH305     -0.3841
     15  O4         4.7110   11.1420   16.3810 O.3   305  INH305     -0.3864
     16  O5         2.8570   13.3930   16.3600 O.3   305  INH305     -0.3869
     17  O6         6.1400   14.9380   16.5670 O.3   305  INH305     -0.3461
     18  H1        11.4940   16.8330   14.3390 H     305  INH305      0.2014
     19  H2        10.9320   18.3800   14.3710 H     305  INH305      0.2014
     20  H3         9.6840   18.0330   16.3090 H     305  INH305      0.0840
     21  H4        11.3760   17.4890   16.5700 H     305  INH305      0.0840
     22  H5        10.7270   15.1610   16.1390 H     305  INH305      0.0673
     23  H6         9.3140   14.9750   17.9690 H     305  INH305      0.2101
     24  H7         7.9360   16.3280   15.7480 H     305  INH305      0.0627
     25  H8         8.2420   15.3350   13.4600 H     305  INH305      0.0343
     26  H9         9.9320   14.9100   13.8960 H     305  INH305      0.0343
     27  H10        9.8350   17.0540   12.6770 H     305  INH305      0.0815
     28  H11        8.7130   17.7090   13.9170 H     305  INH305      0.0815
     29  H12        6.6390   14.3470   14.6490 H     305  INH305      0.0937
     30  H13        6.8510   12.4010   16.9920 H     305  INH305      0.0671
     31  H14        4.7130   12.4940   14.8330 H     305  INH305      0.0647
     32  H15        4.3830   13.3340   17.7390 H     305  INH305      0.0643
     33  H16        4.2430   15.6320   16.9280 H     305  INH305      0.0587
     34  H17        4.5740   15.0850   15.2490 H     305  INH305      0.0587
     35  H18        8.1390   11.9990   15.1110 H     305  INH305      0.2101
     36  H19        5.2010   10.4940   15.8890 H     305  INH305      0.2100
     37  H20        2.5520   12.5220   16.5850 H     305  INH305      0.2100
@<TRIPOS>BOND
     1     1    19    1
     2     1    18    1
     3     1     8    1
     4     1     2    1
     5     2    21    1
     6     2    20    1
     7     2     3    1
     8     3    22    1
     9     3     5    1
    10     3     4    1
    11     4    23    1
    12     5    24    1
    13     5     7    1
    14     5     6    1
    15     6     9    1
    16     7    26    1
    17     7    25    1
    18     7     8    1
    19     8    28    1
    20     8    27    1
    21     9    29    1
    22     9    17    1
    23     9    10    1
    24    10    30    1
    25    10    14    1
    26    10    11    1
    27    11    31    1
    28    11    15    1
    29    11    12    1
    30    12    32    1
    31    12    16    1
    32    12    13    1
    33    13    34    1
    34    13    33    1
    35    13    17    1
    36    14    35    1
    37    15    36    1
    38    16    37    1
