@<TRIPOS>MOLECULE
/tmp/ewbell/vina_1v0l_1v0l_lig/vina/vina3.pdbqt
 23 24 0 0 0
SMALL
GASTEIGER

@<TRIPOS>ATOM
      1  C6         7.3680   15.3620   15.1790 C.3   305  INH305      0.2910
      2  C7         7.4100   16.8530   15.3880 C.3   305  INH305      0.2040
      3  C8         8.2400   17.5290   14.3060 C.3   305  INH305      0.1820
      4  C9         9.5730   16.8200   14.0920 C.3   305  INH305      0.1730
      5  C10        9.3580   15.3270   13.9710 C.3   305  INH305      0.2050
      6  O6         8.6830   14.8580   15.1090 O.3   305  INH305     -0.3560
      7  O2         6.7480   14.7840   16.2940 O.3   305  INH305     -0.3510
      8  C3         5.6280   13.9400   15.9420 C.3   305  INH305      0.1560
      9  C2         6.0070   12.5100   16.2010 C.3   305  INH305      0.1720
     10  C1         4.8750   11.5830   15.7710 C.3   305  INH305      0.2660
     11  N1         3.6180   11.9310   16.4510 N.4   305  INH305     -0.0730
     12  H2         2.8760   11.3710   16.0630 H     305  INH305      0.2770
     13  H1         3.7160   11.7250   17.4340 H     305  INH305      0.2770
     14  C5         3.2560   13.3660   16.3020 C.3   305  INH305      0.2350
     15  C4         4.3820   14.2500   16.7770 C.3   305  INH305      0.0620
     16  O1         7.1780   12.1900   15.4640 O.3   305  INH305     -0.3910
     17  H6         7.9140   12.6790   15.8120 H     305  INH305      0.2100
     18  O3         6.0760   17.3400   15.3820 O.3   305  INH305     -0.3880
     19  H18        5.4730   16.6140   15.4850 H     305  INH305      0.2100
     20  O4         8.4440   18.8860   14.6630 O.3   305  INH305     -0.3900
     21  H19        8.7770   19.3650   13.9130 H     305  INH305      0.2100
     22  O5        10.2020   17.3360   12.9280 O.3   305  INH305     -0.3910
     23  H20       11.1450   17.3010   13.0360 H     305  INH305      0.2100
@<TRIPOS>BOND
     1    22    23    1
     2    22     4    1
     3    21    20    1
     4     5     4    1
     5     5     6    1
     6     4     3    1
     7     3    20    1
     8     3     2    1
     9     6     1    1
    10     1     2    1
    11     1     7    1
    12    18     2    1
    13    18    19    1
    14    16    17    1
    15    16     9    1
    16    10     9    1
    17    10    11    1
    18     8     9    1
    19     8     7    1
    20     8    15    1
    21    12    11    1
    22    14    11    1
    23    14    15    1
    24    11    13    1
