@<TRIPOS>MOLECULE
/tmp/ewbell/vina_1v0l_1v0l_lig/vina/vina4.pdbqt
 23 24 0 0 0
SMALL
GASTEIGER

@<TRIPOS>ATOM
      1  C6         7.4290   16.1900   16.0630 C.3   305  INH305      0.2910
      2  C7         8.1620   15.1450   15.2650 C.3   305  INH305      0.2040
      3  C8         9.3540   15.7530   14.5400 C.3   305  INH305      0.1820
      4  C9         8.9750   17.0410   13.8160 C.3   305  INH305      0.1730
      5  C10        8.1870   17.9460   14.7370 C.3   305  INH305      0.2050
      6  O6         7.0620   17.2580   15.2200 O.3   305  INH305     -0.3560
      7  O2         6.2520   15.6130   16.5580 O.3   305  INH305     -0.3510
      8  C3         5.6040   14.7450   15.6000 C.3   305  INH305      0.1560
      9  C2         5.1180   13.5190   16.3190 C.3   305  INH305      0.1720
     10  C1         4.4930   12.5450   15.3270 C.3   305  INH305      0.2660
     11  N1         3.4050   13.1830   14.5700 N.4   305  INH305     -0.0730
     12  H2         3.0930   12.5460   13.8550 H     305  INH305      0.2770
     13  H1         2.6440   13.3790   15.2020 H     305  INH305      0.2770
     14  C5         3.8200   14.4560   13.9220 C.3   305  INH305      0.2350
     15  C4         4.3920   15.4090   14.9400 C.3   305  INH305      0.0620
     16  O1         6.2100   12.8870   16.9700 O.3   305  INH305     -0.3910
     17  H6         6.0320   11.9590   17.0560 H     305  INH305      0.2100
     18  O3         8.5800   14.1190   16.1530 O.3   305  INH305     -0.3880
     19  H18        8.0280   13.3550   16.0370 H     305  INH305      0.2100
     20  O4         9.8740   14.7990   13.6290 O.3   305  INH305     -0.3900
     21  H19       10.7550   15.0500   13.3760 H     305  INH305      0.2100
     22  O5        10.1530   17.6890   13.3570 O.3   305  INH305     -0.3910
     23  H20       10.0890   17.8340   12.4210 H     305  INH305      0.2100
@<TRIPOS>BOND
     1    23    22    1
     2    22     4    1
     3    21    20    1
     4    20     3    1
     5     4     3    1
     6     4     5    1
     7    12    11    1
     8    14    11    1
     9    14    15    1
    10     3     2    1
    11    11    13    1
    12    11    10    1
    13     5     6    1
    14    15     8    1
    15     6     1    1
    16     2     1    1
    17     2    18    1
    18    10     9    1
    19     8     9    1
    20     8     7    1
    21    19    18    1
    22     1     7    1
    23     9    16    1
    24    16    17    1
