@<TRIPOS>MOLECULE
/tmp/ewbell/vina_1v0l_1v0l_lig/vina/vina2.pdbqt
 23 24 0 0 0
SMALL
GASTEIGER

@<TRIPOS>ATOM
      1  C6         8.1610   17.5520   14.4140 C.3   305  INH305      0.2910
      2  C7         9.4420   17.2480   15.1430 C.3   305  INH305      0.2040
      3  C8         9.5280   15.7710   15.4970 C.3   305  INH305      0.1820
      4  C9         8.2340   15.2660   16.1270 C.3   305  INH305      0.1730
      5  C10        7.0440   15.7170   15.3090 C.3   305  INH305      0.2050
      6  O6         7.0640   17.1150   15.1840 O.3   305  INH305     -0.3560
      7  O2         8.0580   18.9430   14.2760 O.3   305  INH305     -0.3510
      8  C3         7.6290   19.3480   12.9560 C.3   305  INH305      0.1560
      9  C2         6.7740   20.5750   13.0880 C.3   305  INH305      0.1720
     10  C1         6.2420   20.9910   11.7200 C.3   305  INH305      0.2660
     11  N1         7.3410   21.2090   10.7670 N.4   305  INH305     -0.0730
     12  H2         6.9480   21.3740    9.8550 H     305  INH305      0.2770
     13  H1         7.8640   22.0200   11.0600 H     305  INH305      0.2770
     14  C5         8.2700   20.0510   10.6800 C.3   305  INH305      0.2350
     15  C4         8.8080   19.6980   12.0440 C.3   305  INH305      0.0620
     16  O1         5.6810   20.3000   13.9510 O.3   305  INH305     -0.3910
     17  H6         4.8760   20.6010   13.5470 H     305  INH305      0.2100
     18  O3        10.5280   17.6340   14.3130 O.3   305  INH305     -0.3880
     19  H18       10.3540   18.4910   13.9410 H     305  INH305      0.2100
     20  O4        10.6250   15.5700   16.3730 O.3   305  INH305     -0.3900
     21  H19       11.4380   15.7230   15.9040 H     305  INH305      0.2100
     22  O5         8.2750   13.8500   16.2220 O.3   305  INH305     -0.3910
     23  H20        7.3970   13.5160   16.3600 H     305  INH305      0.2100
@<TRIPOS>BOND
     1    12    11    1
     2    14    11    1
     3    14    15    1
     4    11    13    1
     5    11    10    1
     6    10     9    1
     7    15     8    1
     8     8     9    1
     9     8     7    1
    10     9    16    1
    11    17    16    1
    12    19    18    1
    13     7     1    1
    14    18     2    1
    15     1     2    1
    16     1     6    1
    17     2     3    1
    18     6     5    1
    19     5     4    1
    20     3     4    1
    21     3    20    1
    22    21    20    1
    23     4    22    1
    24    22    23    1
