@<TRIPOS>MOLECULE
/tmp/ewbell/vina_1v0l_1v0l_lig/vina/vina1.pdbqt
 23 24 0 0 0
SMALL
GASTEIGER

@<TRIPOS>ATOM
      1  C6         6.9450   13.9720   15.4880 C.3   305  INH305      0.2910
      2  C7         6.6350   12.5180   15.7280 C.3   305  INH305      0.2040
      3  C8         5.1320   12.2860   15.7860 C.3   305  INH305      0.1820
      4  C9         4.4390   13.3030   16.6870 C.3   305  INH305      0.1730
      5  C10        4.9140   14.7020   16.3600 C.3   305  INH305      0.2050
      6  O6         6.3120   14.7590   16.4710 O.3   305  INH305     -0.3560
      7  O2         8.3280   14.1500   15.6230 O.3   305  INH305     -0.3510
      8  C3         8.7460   15.5140   15.3930 C.3   305  INH305      0.1560
      9  C2         9.9650   15.7870   16.2260 C.3   305  INH305      0.1720
     10  C1        10.3930   17.2420   16.0660 C.3   305  INH305      0.2660
     11  N1        10.6320   17.5720   14.6520 N.4   305  INH305     -0.0730
     12  H2        10.8050   18.5610   14.5770 H     305  INH305      0.2770
     13  H1        11.4430   17.0630   14.3350 H     305  INH305      0.2770
     14  C5         9.4820   17.2240   13.7750 C.3   305  INH305      0.2350
     15  C4         9.1160   15.7700   13.9290 C.3   305  INH305      0.0620
     16  O1         9.6710   15.5340   17.5920 O.3   305  INH305     -0.3910
     17  H6         9.3970   16.3410   18.0110 H     305  INH305      0.2100
     18  O3         7.2240   11.7590   14.6830 O.3   305  INH305     -0.3880
     19  H18        8.1510   11.6470   14.8580 H     305  INH305      0.2100
     20  O4         4.8860   10.9650   16.2370 O.3   305  INH305     -0.3900
     21  H19        4.5370   10.4450   15.5220 H     305  INH305      0.2100
     22  O5         3.0310   13.1970   16.5250 O.3   305  INH305     -0.3910
     23  H20        2.7610   13.7030   15.7690 H     305  INH305      0.2100
@<TRIPOS>BOND
     1    14    15    1
     2    14    11    1
     3    15     8    1
     4    13    11    1
     5    12    11    1
     6    11    10    1
     7    18    19    1
     8    18     2    1
     9     8     7    1
    10     8     9    1
    11     1     7    1
    12     1     2    1
    13     1     6    1
    14    21    20    1
    15     2     3    1
    16    23    22    1
    17     3    20    1
    18     3     4    1
    19    10     9    1
    20     9    16    1
    21     5     6    1
    22     5     4    1
    23    22     4    1
    24    16    17    1
