@<TRIPOS>MOLECULE
/tmp/ewbell/vina_1v0l_1v0l_lig/vina/vina5.pdbqt
 23 24 0 0 0
SMALL
GASTEIGER

@<TRIPOS>ATOM
      1  C6         7.1680   19.6790   13.8940 C.3   305  INH305      0.2910
      2  C7         6.4810   20.8150   14.6060 C.3   305  INH305      0.2040
      3  C8         5.9240   21.8220   13.6100 C.3   305  INH305      0.1820
      4  C9         6.9520   22.1890   12.5460 C.3   305  INH305      0.1730
      5  C10        7.5940   20.9400   11.9840 C.3   305  INH305      0.2050
      6  O6         8.1570   20.1920   13.0310 O.3   305  INH305     -0.3560
      7  O2         7.8090   18.8870   14.8560 O.3   305  INH305     -0.3510
      8  C3         7.7580   17.4750   14.5480 C.3   305  INH305      0.1560
      9  C2         9.1540   16.9250   14.6010 C.3   305  INH305      0.1720
     10  C1         9.1500   15.4510   14.2100 C.3   305  INH305      0.2660
     11  N1         8.2400   14.6760   15.0690 N.4   305  INH305     -0.0730
     12  H2         8.1830   13.7360   14.7120 H     305  INH305      0.2770
     13  H1         8.6170   14.6590   16.0040 H     305  INH305      0.2770
     14  C5         6.8680   15.2480   15.1220 C.3   305  INH305      0.2350
     15  C4         6.9100   16.6920   15.5540 C.3   305  INH305      0.0620
     16  O1         9.9820   17.6450   13.7000 O.3   305  INH305     -0.3910
     17  H6        10.5170   18.2610   14.1860 H     305  INH305      0.2100
     18  O3         5.4450   20.2730   15.4120 O.3   305  INH305     -0.3880
     19  H18        4.6030   20.4610   15.0140 H     305  INH305      0.2100
     20  O4         5.4940   22.9750   14.3140 O.3   305  INH305     -0.3900
     21  H19        4.6730   23.2820   13.9480 H     305  INH305      0.2100
     22  O5         6.3210   22.9390   11.5170 O.3   305  INH305     -0.3910
     23  H20        6.5470   22.5690   10.6720 H     305  INH305      0.2100
@<TRIPOS>BOND
     1    23    22    1
     2    22     4    1
     3     5     4    1
     4     5     6    1
     5     4     3    1
     6     6     1    1
     7     3    20    1
     8     3     2    1
     9    16    17    1
    10    16     9    1
    11     1     2    1
    12     1     7    1
    13    21    20    1
    14    10     9    1
    15    10    11    1
    16     8     9    1
    17     8     7    1
    18     8    15    1
    19     2    18    1
    20    12    11    1
    21    19    18    1
    22    11    14    1
    23    11    13    1
    24    14    15    1
