@<TRIPOS>MOLECULE
./ligand/2jdy_lig.pdb
 27 27 0 0 0
SMALL
GASTEIGER

@<TRIPOS>ATOM
      1  C1        -4.4630  -17.8730   -5.8620 C.3   473  INH473      0.1876
      2  C2        -3.7120  -17.2790   -4.6580 C.3   473  INH473      0.1341
      3  C3        -4.6820  -16.6970   -3.6280 C.3   473  INH473      0.1141
      4  C4        -5.6640  -15.7360   -4.2980 C.3   473  INH473      0.1119
      5  C5        -6.4030  -16.5370   -5.3640 C.3   473  INH473      0.1130
      6  C6        -7.5240  -15.7430   -6.0400 C.3   473  INH473      0.0730
      7  C7        -5.5150  -19.9010   -6.5190 C.3   473  INH473      0.0395
      8  O1        -5.1300  -19.0560   -5.4150 O.3   473  INH473     -0.3520
      9  O2        -2.8330  -16.2240   -5.1120 O.3   473  INH473     -0.3841
     10  O3        -3.9410  -15.9340   -2.6550 O.3   473  INH473     -0.3864
     11  O4        -6.5470  -15.1530   -3.3100 O.3   473  INH473     -0.3865
     12  O5        -5.4450  -16.9560   -6.3560 O.3   473  INH473     -0.3405
     13  O6        -8.3180  -16.6950   -6.7870 O.3   473  INH473     -0.3924
     14  H1        -3.7500  -18.1170   -6.6630 H     473  INH473      0.0937
     15  H2        -3.1170  -18.0730   -4.1830 H     473  INH473      0.0671
     16  H3        -5.2310  -17.5130   -3.1350 H     473  INH473      0.0648
     17  H4        -5.1070  -14.9220   -4.7850 H     473  INH473      0.0647
     18  H5        -6.8460  -17.4250   -4.8900 H     473  INH473      0.0647
     19  H6        -8.1450  -15.2440   -5.2820 H     473  INH473      0.0584
     20  H7        -7.0980  -14.9900   -6.7190 H     473  INH473      0.0584
     21  H8        -6.0230  -20.7980   -6.1350 H     473  INH473      0.0525
     22  H9        -4.6180  -20.2010   -7.0810 H     473  INH473      0.0525
     23  H10       -6.1970  -19.3490   -7.1830 H     473  INH473      0.0525
     24  H11       -2.2250  -16.5730   -5.7530 H     473  INH473      0.2101
     25  H12       -3.3080  -16.4980   -2.2270 H     473  INH473      0.2100
     26  H13       -7.1520  -14.5580   -3.7380 H     473  INH473      0.2100
     27  H14       -7.7730  -17.1200   -7.4390 H     473  INH473      0.2095
@<TRIPOS>BOND
     1     1    14    1
     2     1    12    1
     3     1     8    1
     4     1     2    1
     5     2    15    1
     6     2     9    1
     7     2     3    1
     8     3    16    1
     9     3    10    1
    10     3     4    1
    11     4    17    1
    12     4    11    1
    13     4     5    1
    14     5    18    1
    15     5    12    1
    16     5     6    1
    17     6    20    1
    18     6    19    1
    19     6    13    1
    20     7     8    1
    21     7    23    1
    22     7    22    1
    23     7    21    1
    24     9    24    1
    25    10    25    1
    26    11    26    1
    27    13    27    1
