@<TRIPOS>MOLECULE
/tmp/ewbell/vina_2jdy_2jdy_lig/vina/vina2.pdbqt
 17 17 0 0 0
SMALL
GASTEIGER

@<TRIPOS>ATOM
      1  C1        -6.4870  -18.3500   -3.8870 C.3   473  INH473      0.2900
      2  C2        -6.7060  -16.8380   -4.0630 C.3   473  INH473      0.2040
      3  C3        -5.5370  -16.1880   -4.8050 C.3   473  INH473      0.1830
      4  C4        -4.2090  -16.5620   -4.1470 C.3   473  INH473      0.1800
      5  C5        -4.1130  -18.0830   -4.1860 C.3   473  INH473      0.1790
      6  O5        -5.1770  -18.6220   -3.3770 O.3   473  INH473     -0.3490
      7  C6        -2.7690  -18.6120   -3.6800 C.3   473  INH473      0.1980
      8  O6        -2.1560  -17.5390   -2.9270 O.3   473  INH473     -0.3980
      9  H14       -2.8190  -16.9090   -2.6740 H     473  INH473      0.2090
     10  O4        -3.1110  -15.9050   -4.8240 O.3   473  INH473     -0.3900
     11  H13       -3.0960  -14.9860   -4.5840 H     473  INH473      0.2100
     12  O3        -5.6600  -14.7540   -4.7230 O.3   473  INH473     -0.3900
     13  H12       -6.3260  -14.5300   -4.0850 H     473  INH473      0.2100
     14  O1        -6.6080  -18.9580   -5.1750 O.3   473  INH473     -0.3630
     15  C7        -7.9630  -18.8990   -5.6680 C.3   473  INH473      0.2040
     16  O2        -6.8320  -16.2150   -2.7640 O.3   473  INH473     -0.3880
     17  H11       -7.7280  -15.9250   -2.6380 H     473  INH473      0.2100
@<TRIPOS>BOND
     1    15    14    1
     2    14     1    1
     3    10    11    1
     4    10     4    1
     5     3    12    1
     6     3     4    1
     7     3     2    1
     8    12    13    1
     9     5     4    1
    10     5     7    1
    11     5     6    1
    12     2     1    1
    13     2    16    1
    14     1     6    1
    15     7     8    1
    16     8     9    1
    17    16    17    1
