@<TRIPOS>MOLECULE
/tmp/ewbell/vina_2jdy_2jdy_lig/vina/vina5.pdbqt
 17 17 0 0 0
SMALL
GASTEIGER

@<TRIPOS>ATOM
      1  C1        -6.2100  -17.7040   -5.6270 C.3   473  INH473      0.2900
      2  C2        -6.0180  -16.3140   -4.9970 C.3   473  INH473      0.2040
      3  C3        -6.2650  -16.3470   -3.4880 C.3   473  INH473      0.1830
      4  C4        -7.6120  -17.0010   -3.1780 C.3   473  INH473      0.1800
      5  C5        -7.5590  -18.4090   -3.7620 C.3   473  INH473      0.1790
      6  O5        -7.4390  -18.2970   -5.1940 O.3   473  INH473     -0.3490
      7  C6        -8.7940  -19.2460   -3.4170 C.3   473  INH473      0.1980
      8  O6        -8.6890  -19.5850   -2.0140 O.3   473  INH473     -0.3980
      9  H14       -7.8540  -20.0070   -1.8500 H     473  INH473      0.2090
     10  O4        -7.8600  -16.9860   -1.7520 O.3   473  INH473     -0.3900
     11  H13       -7.9820  -16.0890   -1.4620 H     473  INH473      0.2100
     12  O3        -6.3260  -14.9970   -2.9860 O.3   473  INH473     -0.3900
     13  H12       -6.6950  -15.0020   -2.1110 H     473  INH473      0.2100
     14  O1        -5.1280  -18.5300   -5.1910 O.3   473  INH473     -0.3630
     15  C7        -3.8800  -18.1390   -5.7990 C.3   473  INH473      0.2040
     16  O2        -6.9480  -15.3810   -5.5970 O.3   473  INH473     -0.3880
     17  H11       -7.8330  -15.7120   -5.5010 H     473  INH473      0.2100
@<TRIPOS>BOND
     1    15    14    1
     2     1     6    1
     3     1    14    1
     4     1     2    1
     5    16    17    1
     6    16     2    1
     7     6     5    1
     8     2     3    1
     9     5     7    1
    10     5     4    1
    11     3     4    1
    12     3    12    1
    13     7     8    1
    14     4    10    1
    15    12    13    1
    16     8     9    1
    17    10    11    1
