@<TRIPOS>MOLECULE
/tmp/ewbell/vina_2jdy_2jdy_lig/vina/vina3.pdbqt
 17 17 0 0 0
SMALL
GASTEIGER

@<TRIPOS>ATOM
      1  C1        -5.2280  -18.9940   -4.4900 C.3   473  INH473      0.2900
      2  C2        -4.3490  -17.8250   -4.9650 C.3   473  INH473      0.2040
      3  C3        -4.5080  -16.6030   -4.0570 C.3   473  INH473      0.1830
      4  C4        -5.9850  -16.2530   -3.8820 C.3   473  INH473      0.1800
      5  C5        -6.6580  -17.4820   -3.2800 C.3   473  INH473      0.1790
      6  O5        -6.5670  -18.5570   -4.2360 O.3   473  INH473     -0.3490
      7  C6        -8.1270  -17.2430   -2.9190 C.3   473  INH473      0.1980
      8  O6        -8.3040  -17.7130   -1.5610 O.3   473  INH473     -0.3980
      9  H14       -8.3790  -16.9700   -0.9750 H     473  INH473      0.2090
     10  O4        -6.1250  -15.0690   -3.0620 O.3   473  INH473     -0.3900
     11  H13       -6.2850  -14.3150   -3.6180 H     473  INH473      0.2100
     12  O3        -3.8740  -15.4660   -4.6760 O.3   473  INH473     -0.3900
     13  H12       -4.5150  -14.9870   -5.1880 H     473  INH473      0.2100
     14  O1        -4.6710  -19.4860   -3.2690 O.3   473  INH473     -0.3630
     15  C7        -3.4020  -20.1360   -3.4850 C.3   473  INH473      0.2040
     16  O2        -4.7280  -17.4530   -6.3100 O.3   473  INH473     -0.3880
     17  H11       -5.6050  -17.0880   -6.3020 H     473  INH473      0.2100
@<TRIPOS>BOND
     1    16    17    1
     2    16     2    1
     3    13    12    1
     4     2     1    1
     5     2     3    1
     6    12     3    1
     7     1     6    1
     8     1    14    1
     9     6     5    1
    10     3     4    1
    11     4     5    1
    12     4    10    1
    13    11    10    1
    14    15    14    1
    15     5     7    1
    16     7     8    1
    17     8     9    1
