@<TRIPOS>MOLECULE
/tmp/ewbell/vina_2jdy_2jdy_lig/vina/vina1.pdbqt
 17 17 0 0 0
SMALL
GASTEIGER

@<TRIPOS>ATOM
      1  C1        -4.3280  -17.7300   -5.9300 C.3   473  INH473      0.2900
      2  C2        -3.6080  -17.0340   -4.7620 C.3   473  INH473      0.2040
      3  C3        -4.5950  -16.6150   -3.6700 C.3   473  INH473      0.1830
      4  C4        -5.7500  -15.8130   -4.2690 C.3   473  INH473      0.1800
      5  C5        -6.4180  -16.7120   -5.3030 C.3   473  INH473      0.1790
      6  O5        -5.4670  -16.9720   -6.3540 O.3   473  INH473     -0.3490
      7  C6        -7.6850  -16.0970   -5.9030 C.3   473  INH473      0.1980
      8  O6        -7.3050  -15.5100   -7.1700 O.3   473  INH473     -0.3980
      9  H14       -7.9980  -15.6480   -7.8050 H     473  INH473      0.2090
     10  O4        -6.6530  -15.3790   -3.2240 O.3   473  INH473     -0.3900
     11  H13       -6.1540  -14.9830   -2.5190 H     473  INH473      0.2100
     12  O3        -3.9240  -15.7520   -2.7300 O.3   473  INH473     -0.3900
     13  H12       -4.3810  -15.7760   -1.8980 H     473  INH473      0.2100
     14  O1        -4.7780  -19.0040   -5.4640 O.3   473  INH473     -0.3630
     15  C7        -4.9160  -19.9500   -6.5440 C.3   473  INH473      0.2040
     16  O2        -2.9300  -15.8530   -5.2500 O.3   473  INH473     -0.3880
     17  H11       -2.4150  -16.0780   -6.0160 H     473  INH473      0.2100
@<TRIPOS>BOND
     1     9     8    1
     2     8     7    1
     3    15    14    1
     4     6     1    1
     5     6     5    1
     6    17    16    1
     7     1    14    1
     8     1     2    1
     9     7     5    1
    10     5     4    1
    11    16     2    1
    12     2     3    1
    13     4     3    1
    14     4    10    1
    15     3    12    1
    16    10    11    1
    17    12    13    1
