@<TRIPOS>MOLECULE
/tmp/ewbell/vina_2jdy_2jdy_lig/vina/vina4.pdbqt
 17 17 0 0 0
SMALL
GASTEIGER

@<TRIPOS>ATOM
      1  C1        -6.7270  -18.9820   -3.3390 C.3   473  INH473      0.2900
      2  C2        -7.8780  -17.9620   -3.3870 C.3   473  INH473      0.2040
      3  C3        -7.5690  -16.8190   -4.3560 C.3   473  INH473      0.1830
      4  C4        -6.1990  -16.2130   -4.0530 C.3   473  INH473      0.1800
      5  C5        -5.1820  -17.3410   -4.1850 C.3   473  INH473      0.1790
      6  O5        -5.4670  -18.3250   -3.1710 O.3   473  INH473     -0.3490
      7  C6        -3.7350  -16.8630   -4.0400 C.3   473  INH473      0.1980
      8  O6        -3.7450  -15.7920   -3.0670 O.3   473  INH473     -0.3980
      9  H14       -2.8560  -15.4960   -2.9110 H     473  INH473      0.2090
     10  O4        -5.9350  -15.1020   -4.9420 O.3   473  INH473     -0.3900
     11  H13       -5.1230  -14.6780   -4.6860 H     473  INH473      0.2100
     12  O3        -8.5430  -15.7710   -4.1800 O.3   473  INH473     -0.3900
     13  H12       -8.6280  -15.5710   -3.2560 H     473  INH473      0.2100
     14  O1        -6.7140  -19.6780   -4.5880 O.3   473  INH473     -0.3630
     15  C7        -7.8410  -20.5690   -4.7150 C.3   473  INH473      0.2040
     16  O2        -8.0840  -17.4070   -2.0680 O.3   473  INH473     -0.3880
     17  H11       -7.5720  -17.8970   -1.4350 H     473  INH473      0.2100
@<TRIPOS>BOND
     1    10    11    1
     2    10     4    1
     3    15    14    1
     4    14     1    1
     5     3    12    1
     6     3     4    1
     7     3     2    1
     8     5     4    1
     9     5     7    1
    10     5     6    1
    11    12    13    1
    12     7     8    1
    13     2     1    1
    14     2    16    1
    15     1     6    1
    16     8     9    1
    17    16    17    1
